1, 'GENCLS',1 , 518.000000, 518.100000 /