0,  100.000		 / PSS/E-33.2    SUN, MAR 10 2013  17:41 


  1001,'1001        ',115.0000,1,1,1,1,   1.03137, -28.66489,1.10000,0.90000,1.10000,0.90000
  1002,'1002        ',115.0000,1,1,1,1,   1.07323, -23.50041,1.10000,0.90000,1.10000,0.90000
  1003,'1003        ',115.0000,1,1,1,1,   1.06769, -19.83273,1.10000,0.90000,1.10000,0.90000
  1004,'1004        ',230.0000,2,1,1,1,   1.06831, -21.24582,1.10000,0.90000,1.10000,0.90000
  1005,'1005        ',115.0000,1,1,1,1,   1.06233, -20.50085,1.10000,0.90000,1.10000,0.90000
  1006,'1006        ',13.8000,2,1,1,1,   1.05631, -18.55316,1.10000,0.90000,1.10000,0.90000
  1007,'1007        ',115.0000,1,1,1,1,   1.08068, -24.11431,1.10000,0.90000,1.10000,0.90000
  1008,'1008        ',115.0000,1,1,1,1,   1.05913, -13.31681,1.10000,0.90000,1.10000,0.90000
  1009,'1009        ',13.8000,2,1,1,1,   1.04960, -10.26738,1.10000,0.90000,1.10000,0.90000
  1010,'1010        ',115.0000,1,1,1,1,   1.07964, -22.24548,1.10000,0.90000,1.10000,0.90000
  1011,'1011        ',22.0000,2,1,1,1,   1.07989, -20.65008,1.10000,0.90000,1.10000,0.90000
  1012,'1012        ',115.0000,1,1,1,1,   1.08268, -27.54071,1.10000,0.90000,1.10000,0.90000
  1013,'1013        ',115.0000,1,1,1,1,   1.05628, -21.92282,1.10000,0.90000,1.10000,0.90000
  1014,'1014        ',115.0000,1,1,1,1,   1.06031, -18.06581,1.10000,0.90000,1.10000,0.90000
  1015,'1015        ',115.0000,1,1,1,1,   1.08261, -23.68289,1.10000,0.90000,1.10000,0.90000
  1016,'1016        ',115.0000,1,1,1,1,   1.07037, -20.11109,1.10000,0.90000,1.10000,0.90000
  1017,'1017        ',115.0000,1,1,1,1,   1.03779, -27.28619,1.10000,0.90000,1.10000,0.90000
  1018,'1018        ',115.0000,1,1,1,1,   1.03765, -26.06991,1.10000,0.90000,1.10000,0.90000
  1019,'1019        ',115.0000,1,1,1,1,   1.05014, -28.14580,1.10000,0.90000,1.10000,0.90000
  1020,'1020        ',115.0000,1,1,1,1,   1.06756, -19.29265,1.10000,0.90000,1.10000,0.90000
  1021,'1021        ',13.8000,2,1,1,1,   1.04479, -13.22848,1.10000,0.90000,1.10000,0.90000
  1022,'1022        ',115.0000,1,1,1,1,   1.07056, -18.99590,1.10000,0.90000,1.10000,0.90000
  1023,'1023        ',13.8000,2,1,1,1,   1.08572, -11.20888,1.10000,0.90000,1.10000,0.90000
  1024,'1024        ',115.0000,1,1,1,1,   1.03341, -25.12939,1.10000,0.90000,1.10000,0.90000
  1025,'1025        ',115.0000,1,1,1,1,   1.06612, -18.45712,1.10000,0.90000,1.10000,0.90000
  1026,'1026        ',13.8000,2,1,1,1,   1.04638,  -9.77630,1.10000,0.90000,1.10000,0.90000
  1027,'1027        ',115.0000,1,1,1,1,   1.06952, -30.52339,1.10000,0.90000,1.10000,0.90000
  1028,'1028        ',115.0000,1,1,1,1,   1.06526, -20.19073,1.10000,0.90000,1.10000,0.90000
  1029,'1029        ',115.0000,1,1,1,1,   1.08637, -29.83633,1.10000,0.90000,1.10000,0.90000
  1030,'1030        ',115.0000,1,1,1,1,   1.06431, -18.70916,1.10000,0.90000,1.10000,0.90000
  1031,'1031        ',115.0000,1,1,1,1,   1.06853, -23.67455,1.10000,0.90000,1.10000,0.90000
  1032,'1032        ',115.0000,1,1,1,1,   1.05172, -17.13956,1.10000,0.90000,1.10000,0.90000
  1033,'1033        ',230.0000,2,1,1,1,   1.07945, -21.31453,1.10000,0.90000,1.10000,0.90000
  1034,'1034        ',115.0000,1,1,1,1,   1.05926, -19.06974,1.10000,0.90000,1.10000,0.90000
  1035,'1035        ',13.8000,2,1,1,1,   1.05156, -16.09321,1.10000,0.90000,1.10000,0.90000
  1036,'1036        ',115.0000,1,1,1,1,   1.04293, -17.30831,1.10000,0.90000,1.10000,0.90000
  1037,'1037        ',115.0000,1,1,1,1,   1.02873, -28.39752,1.10000,0.90000,1.10000,0.90000
  1038,'1038        ',115.0000,1,1,1,1,   1.06180, -13.02208,1.10000,0.90000,1.10000,0.90000
  1039,'1039        ',22.0000,2,1,1,1,   1.04248,  -8.07423,1.10000,0.90000,1.10000,0.90000
  1040,'1040        ',115.0000,1,1,1,1,   1.03340, -26.35762,1.10000,0.90000,1.10000,0.90000
  1041,'1041        ',115.0000,1,1,1,1,   1.05984, -19.87073,1.10000,0.90000,1.10000,0.90000
  1042,'1042        ',13.8000,2,1,1,1,   1.05984, -19.87073,1.10000,0.90000,1.10000,0.90000
  1043,'1043        ',13.8000,2,1,1,1,   1.05714, -16.96962,1.10000,0.90000,1.10000,0.90000
  1044,'1044        ',115.0000,1,1,1,1,   1.06357, -28.28384,1.10000,0.90000,1.10000,0.90000
  1045,'1045        ',115.0000,1,1,1,1,   1.03189, -29.98176,1.10000,0.90000,1.10000,0.90000
  1046,'1046        ',115.0000,1,1,1,1,   1.08417, -25.20230,1.10000,0.90000,1.10000,0.90000
  1047,'1047        ',115.0000,1,1,1,1,   1.05424, -20.08414,1.10000,0.90000,1.10000,0.90000
  1048,'1048        ',18.0000,2,1,1,1,   1.05424, -20.08414,1.10000,0.90000,1.10000,0.90000
  1049,'1049        ',18.0000,2,1,1,1,   1.05424, -20.08414,1.10000,0.90000,1.10000,0.90000
  1050,'1050        ',18.0000,2,1,1,1,   1.04431, -15.78530,1.10000,0.90000,1.10000,0.90000
  1051,'1051        ',18.0000,2,1,1,1,   1.04243, -15.68105,1.10000,0.90000,1.10000,0.90000
  1052,'1052        ',18.0000,2,1,1,1,   1.04735, -16.76598,1.10000,0.90000,1.10000,0.90000
  1053,'1053        ',230.0000,2,1,1,1,   1.07272, -22.50666,1.10000,0.90000,1.10000,0.90000
  1054,'1054        ',115.0000,1,1,1,1,   1.06793, -26.40408,1.10000,0.90000,1.10000,0.90000
  1055,'1055        ',115.0000,1,1,1,1,   1.06061, -20.96012,1.10000,0.90000,1.10000,0.90000
  1056,'1056        ',115.0000,1,1,1,1,   1.08611, -26.41794,1.10000,0.90000,1.10000,0.90000
  1057,'1057        ',18.0000,2,1,1,1,   1.08611, -26.41794,1.10000,0.90000,1.10000,0.90000
  1058,'1058        ',115.0000,1,1,1,1,   1.06254, -15.53226,1.10000,0.90000,1.10000,0.90000
  1059,'1059        ',22.0000,2,1,1,1,   1.06254, -15.53226,1.10000,0.90000,1.10000,0.90000
  1060,'1060        ',22.0000,2,1,1,1,   1.06254, -15.53226,1.10000,0.90000,1.10000,0.90000
  1061,'1061        ',115.0000,1,1,1,1,   1.06493, -21.53338,1.10000,0.90000,1.10000,0.90000
  1062,'1062        ',13.8000,2,1,1,1,   1.06493, -21.53338,1.10000,0.90000,1.10000,0.90000
  1063,'1063        ',13.8000,2,1,1,1,   1.06493, -21.53338,1.10000,0.90000,1.10000,0.90000
  1064,'1064        ',115.0000,1,1,1,1,   1.02519, -29.87016,1.10000,0.90000,1.10000,0.90000
  1065,'1065        ',115.0000,1,1,1,1,   1.06365, -19.80421,1.10000,0.90000,1.10000,0.90000
  1066,'1066        ',13.8000,2,1,1,1,   1.05974, -13.09454,1.10000,0.90000,1.10000,0.90000
  1067,'1067        ',115.0000,1,1,1,1,   1.05584, -20.31178,1.10000,0.90000,1.10000,0.90000
  1068,'1068        ',115.0000,1,1,1,1,   1.03437, -20.90924,1.10000,0.90000,1.10000,0.90000
  1069,'1069        ',115.0000,1,1,1,1,   1.05860, -13.32168,1.10000,0.90000,1.10000,0.90000
  1070,'1070        ',13.8000,2,1,1,1,   1.04338,  -8.91051,1.10000,0.90000,1.10000,0.90000
  1071,'1071        ',115.0000,1,1,1,1,   1.03781, -27.58148,1.10000,0.90000,1.10000,0.90000
  1072,'1072        ',18.0000,2,1,1,1,   1.02897, -21.81886,1.10000,0.90000,1.10000,0.90000
  1073,'1073        ',18.0000,2,1,1,1,   1.02323, -17.67510,1.10000,0.90000,1.10000,0.90000
  1074,'1074        ',18.0000,2,1,1,1,   1.02727, -19.51994,1.10000,0.90000,1.10000,0.90000
  1075,'1075        ',18.0000,2,1,1,1,   1.01898, -19.72067,1.10000,0.90000,1.10000,0.90000
  1076,'1076        ',18.0000,2,1,1,1,   1.03781, -27.58148,1.10000,0.90000,1.10000,0.90000
  1077,'1077        ',18.0000,2,1,1,1,   1.03781, -27.58148,1.10000,0.90000,1.10000,0.90000
  1078,'1078        ',18.0000,2,1,1,1,   1.01313, -17.57628,1.10000,0.90000,1.10000,0.90000
  1079,'1079        ',500.0000,2,1,1,1,   1.08407, -39.16718,1.10000,0.90000,1.10000,0.90000
  1080,'1080        ',18.0000,2,1,1,1,   1.04407, -17.36120,1.10000,0.90000,1.10000,0.90000
  1081,'1081        ',230.0000,2,1,1,1,   1.07737, -23.33624,1.10000,0.90000,1.10000,0.90000
  1082,'1082        ',115.0000,2,1,1,1,   1.06158, -11.17923,1.10000,0.90000,1.10000,0.90000
  1083,'1083        ',115.0000,1,1,1,1,   1.06598, -15.34594,1.10000,0.90000,1.10000,0.90000
  1084,'1084        ',115.0000,2,1,1,1,   1.05736, -20.73979,1.10000,0.90000,1.10000,0.90000
  1085,'1085        ',115.0000,1,1,1,1,   1.05401, -21.78694,1.10000,0.90000,1.10000,0.90000
  1086,'1086        ',115.0000,1,1,1,1,   1.06512, -23.88159,1.10000,0.90000,1.10000,0.90000
  1087,'1087        ',115.0000,1,1,1,1,   1.07698, -19.78712,1.10000,0.90000,1.10000,0.90000
  1088,'1088        ',115.0000,2,1,1,1,   1.03912, -16.65007,1.10000,0.90000,1.10000,0.90000
  1089,'1089        ',115.0000,1,1,1,1,   1.04267, -24.42499,1.10000,0.90000,1.10000,0.90000
  1090,'1090        ',115.0000,2,1,1,1,   1.05062, -22.24609,1.10000,0.90000,1.10000,0.90000
  1091,'1091        ',161.0000,1,1,1,1,   1.09607, -31.95478,1.10000,0.90000,1.10000,0.90000
  2001,'2001        ',161.0000,1,1,1,1,   1.07591, -58.44449,1.10000,0.90000,1.10000,0.90000
  2002,'2002        ',500.0000,1,1,1,1,   1.07747, -59.29277,1.10000,0.90000,1.10000,0.90000
  2003,'2003        ',161.0000,1,1,1,1,   1.07762, -61.26052,1.10000,0.90000,1.10000,0.90000
  2004,'2004        ',13.8000,2,1,1,1,   1.07747, -59.29277,1.10000,0.90000,1.10000,0.90000
  2005,'2005        ',13.8000,2,1,1,1,   1.07747, -59.29277,1.10000,0.90000,1.10000,0.90000
  2006,'2006        ',13.8000,2,1,1,1,   1.07747, -59.29277,1.10000,0.90000,1.10000,0.90000
  2007,'2007        ',161.0000,1,1,1,1,   1.07616, -58.22070,1.10000,0.90000,1.10000,0.90000
  2008,'2008        ',161.0000,1,1,1,1,   1.08482, -33.48994,1.10000,0.90000,1.10000,0.90000
  2009,'2009        ',161.0000,1,1,1,1,   1.08906, -44.68006,1.10000,0.90000,1.10000,0.90000
  2010,'2010        ',161.0000,1,1,1,1,   1.09927, -36.82808,1.10000,0.90000,1.10000,0.90000
  2011,'2011        ',500.0000,1,1,1,1,   1.10000, -32.79683,1.10000,0.90000,1.10000,0.90000
  2012,'2012        ',161.0000,1,1,1,1,   1.09060, -30.81599,1.10000,0.90000,1.10000,0.90000
  2013,'2013        ',18.0000,2,1,1,1,   1.09220, -30.71186,1.10000,0.90000,1.10000,0.90000
  2014,'2014        ',161.0000,1,1,1,1,   1.08502, -34.01851,1.10000,0.90000,1.10000,0.90000
  2015,'2015        ',161.0000,1,1,1,1,   1.08065, -60.35405,1.10000,0.90000,1.10000,0.90000
  2016,'2016        ',161.0000,1,1,1,1,   1.07914, -66.48990,1.10000,0.90000,1.10000,0.90000
  2017,'2017        ',500.0000,1,1,1,1,   1.08982, -32.94141,1.10000,0.90000,1.10000,0.90000
  2018,'2018        ',161.0000,1,1,1,1,   1.08880, -32.22938,1.10000,0.90000,1.10000,0.90000
  2019,'2019        ',20.0000,2,1,1,1,   1.08982, -32.94141,1.10000,0.90000,1.10000,0.90000
  2020,'2020        ',161.0000,1,1,1,1,   1.05954, -44.35469,1.10000,0.90000,1.10000,0.90000
  2021,'2021        ',500.0000,1,1,1,1,   1.08645, -55.65101,1.10000,0.90000,1.10000,0.90000
  2022,'2022        ',161.0000,1,1,1,1,   1.08323, -57.28835,1.10000,0.90000,1.10000,0.90000
  2023,'2023        ',13.8000,2,1,1,1,   1.08934, -54.27919,1.10000,0.90000,1.10000,0.90000
  2024,'2024        ',13.8000,2,1,1,1,   1.08995, -53.69786,1.10000,0.90000,1.10000,0.90000
  2025,'2025        ',161.0000,1,1,1,1,   1.05637, -43.65291,1.10000,0.90000,1.10000,0.90000
  2026,'2026        ',161.0000,1,1,1,1,   1.08917, -31.88739,1.10000,0.90000,1.10000,0.90000
  2027,'2027        ',161.0000,1,1,1,1,   1.07659, -58.80434,1.10000,0.90000,1.10000,0.90000
  2028,'2028        ',161.0000,1,1,1,1,   1.06215, -46.42910,1.10000,0.90000,1.10000,0.90000
  2029,'2029        ',161.0000,1,1,1,1,   1.09113, -33.48388,1.10000,0.90000,1.10000,0.90000
  2030,'2030        ',161.0000,1,1,1,1,   1.06075, -61.69274,1.10000,0.90000,1.10000,0.90000
  2031,'2031        ',161.0000,1,1,1,1,   1.09471, -30.79069,1.10000,0.90000,1.10000,0.90000
  2032,'2032        ',161.0000,1,1,1,1,   1.07825, -57.72298,1.10000,0.90000,1.10000,0.90000
  2033,'2033        ',161.0000,1,1,1,1,   1.06148, -62.86606,1.10000,0.90000,1.10000,0.90000
  2034,'2034        ',161.0000,1,1,1,1,   1.07766, -65.95241,1.10000,0.90000,1.10000,0.90000
  2035,'2035        ',161.0000,1,1,1,1,   1.09183, -31.63657,1.10000,0.90000,1.10000,0.90000
  2036,'2036        ',161.0000,1,1,1,1,   1.06282, -44.00048,1.10000,0.90000,1.10000,0.90000
  2037,'2037        ',161.0000,1,1,1,1,   1.09155, -60.69414,1.10000,0.90000,1.10000,0.90000
  2038,'2038        ',161.0000,1,1,1,1,   1.07486, -61.67738,1.10000,0.90000,1.10000,0.90000
  2039,'2039        ',161.0000,1,1,1,1,   1.06372, -57.94750,1.10000,0.90000,1.10000,0.90000
  2040,'2040        ',161.0000,1,1,1,1,   1.08158, -57.88413,1.10000,0.90000,1.10000,0.90000
  2041,'2041        ',161.0000,1,1,1,1,   1.09185, -28.88372,1.10000,0.90000,1.10000,0.90000
  2042,'2042        ',18.0000,2,1,1,1,   1.08388, -26.60335,1.10000,0.90000,1.10000,0.90000
  2043,'2043        ',161.0000,1,1,1,1,   1.07815, -66.19974,1.10000,0.90000,1.10000,0.90000
  2044,'2044        ',161.0000,1,1,1,1,   1.08457, -62.31901,1.10000,0.90000,1.10000,0.90000
  2045,'2045        ',161.0000,1,1,1,1,   1.05953, -44.82869,1.10000,0.90000,1.10000,0.90000
  2046,'2046        ',161.0000,1,1,1,1,   1.07746, -65.63662,1.10000,0.90000,1.10000,0.90000
  2047,'2047        ',161.0000,1,1,1,1,   1.07708, -62.04452,1.10000,0.90000,1.10000,0.90000
  2048,'2048        ',161.0000,1,1,1,1,   1.09816, -32.61776,1.10000,0.90000,1.10000,0.90000
  2049,'2049        ',161.0000,1,1,1,1,   1.08648, -40.85023,1.10000,0.90000,1.10000,0.90000
  2050,'2050        ',161.0000,1,1,1,1,   1.06825, -61.10650,1.10000,0.90000,1.10000,0.90000
  2051,'2051        ',161.0000,1,1,1,1,   1.06121, -52.40216,1.10000,0.90000,1.10000,0.90000
  2052,'2052        ',161.0000,1,1,1,1,   1.08412, -32.69982,1.10000,0.90000,1.10000,0.90000
  2053,'2053        ',161.0000,1,1,1,1,   1.05981, -56.61308,1.10000,0.90000,1.10000,0.90000
  2054,'2054        ',500.0000,1,1,1,1,   1.06080, -42.82234,1.10000,0.90000,1.10000,0.90000
  2055,'2055        ',161.0000,1,1,1,1,   1.06064, -43.54098,1.10000,0.90000,1.10000,0.90000
  2056,'2056        ',18.0000,2,1,1,1,   1.06080, -42.82234,1.10000,0.90000,1.10000,0.90000
  2057,'2057        ',18.0000,2,1,1,1,   1.04912, -39.50820,1.10000,0.90000,1.10000,0.90000
  2058,'2058        ',161.0000,1,1,1,1,   1.09212, -28.50368,1.10000,0.90000,1.10000,0.90000
  2059,'2059        ',13.8000,2,1,1,1,   1.08291, -25.54091,1.10000,0.90000,1.10000,0.90000
  2060,'2060        ',161.0000,1,1,1,1,   1.07084, -60.01545,1.10000,0.90000,1.10000,0.90000
  2061,'2061        ',161.0000,1,1,1,1,   1.08879, -37.69375,1.10000,0.90000,1.10000,0.90000
  2062,'2062        ',18.0000,2,1,1,1,   1.08221, -35.65210,1.10000,0.90000,1.10000,0.90000
  2063,'2063        ',161.0000,1,1,1,1,   1.07869, -65.10196,1.10000,0.90000,1.10000,0.90000
  2064,'2064        ',161.0000,1,1,1,1,   1.07662, -58.64328,1.10000,0.90000,1.10000,0.90000
  2065,'2065        ',161.0000,1,1,1,1,   1.09544, -62.44617,1.10000,0.90000,1.10000,0.90000
  2066,'2066        ',161.0000,1,1,1,1,   1.08865, -29.02952,1.10000,0.90000,1.10000,0.90000
  2067,'2067        ',161.0000,1,1,1,1,   1.05307, -43.53986,1.10000,0.90000,1.10000,0.90000
  2068,'2068        ',161.0000,1,1,1,1,   1.05217, -41.55289,1.10000,0.90000,1.10000,0.90000
  2069,'2069        ',161.0000,1,1,1,1,   1.09221, -65.72139,1.10000,0.90000,1.10000,0.90000
  2070,'2070        ',161.0000,1,1,1,1,   1.05276, -41.12425,1.10000,0.90000,1.10000,0.90000
  2071,'2071        ',18.0000,2,1,1,1,   1.04048, -37.74884,1.10000,0.90000,1.10000,0.90000
  2072,'2072        ',161.0000,1,1,1,1,   1.08448, -64.06646,1.10000,0.90000,1.10000,0.90000
  2073,'2073        ',161.0000,1,1,1,1,   1.08727, -26.78185,1.10000,0.90000,1.10000,0.90000
  2074,'2074        ',115.0000,1,1,1,1,   1.08359, -25.15039,1.10000,0.90000,1.10000,0.90000
  2075,'2075        ',115.0000,1,1,1,1,   1.08359, -25.15039,1.10000,0.90000,1.10000,0.90000
  2076,'2076        ',24.0000,2,1,1,1,   1.08494, -25.96703,1.10000,0.90000,1.10000,0.90000
  2077,'2077        ',161.0000,1,1,1,1,   1.09016, -58.55203,1.10000,0.90000,1.10000,0.90000
  2078,'2078        ',13.8000,2,1,1,1,   1.07957, -55.60231,1.10000,0.90000,1.10000,0.90000
  2079,'2079        ',161.0000,1,1,1,1,   1.10000, -35.23735,1.10000,0.90000,1.10000,0.90000
  2080,'2080        ',161.0000,1,1,1,1,   1.06712, -55.29784,1.10000,0.90000,1.10000,0.90000
  2081,'2081        ',161.0000,1,1,1,1,   1.06980, -62.38729,1.10000,0.90000,1.10000,0.90000
  2082,'2082        ',161.0000,1,1,1,1,   1.06722, -44.30115,1.10000,0.90000,1.10000,0.90000
  2083,'2083        ',20.0000,2,1,1,1,   1.06465, -42.85339,1.10000,0.90000,1.10000,0.90000
  2084,'2084        ',20.0000,2,1,1,1,   1.06722, -44.30115,1.10000,0.90000,1.10000,0.90000
  2085,'2085        ',20.0000,2,1,1,1,   1.06722, -44.30115,1.10000,0.90000,1.10000,0.90000
  2086,'2086        ',161.0000,1,1,1,1,   1.06507, -56.94996,1.10000,0.90000,1.10000,0.90000
  2087,'2087        ',161.0000,1,1,1,1,   1.09070, -28.87573,1.10000,0.90000,1.10000,0.90000
  2088,'2088        ',161.0000,1,1,1,1,   1.05221, -41.25914,1.10000,0.90000,1.10000,0.90000
  2089,'2089        ',24.0000,2,1,1,1,   1.04012, -37.95335,1.10000,0.90000,1.10000,0.90000
  2090,'2090        ',161.0000,1,1,1,1,   1.07705, -59.31337,1.10000,0.90000,1.10000,0.90000
  2091,'2091        ',161.0000,1,1,1,1,   1.09490, -34.66484,1.10000,0.90000,1.10000,0.90000
  2092,'2092        ',161.0000,1,1,1,1,   1.07644, -63.64130,1.10000,0.90000,1.10000,0.90000
  2093,'2093        ',161.0000,1,1,1,1,   1.09026, -31.48605,1.10000,0.90000,1.10000,0.90000
  2094,'2094        ',13.8000,2,1,1,1,   1.09026, -31.48605,1.10000,0.90000,1.10000,0.90000
  2095,'2095        ',13.8000,2,1,1,1,   1.09026, -31.48605,1.10000,0.90000,1.10000,0.90000
  2096,'2096        ',500.0000,1,1,1,1,   1.08648, -29.11268,1.10000,0.90000,1.10000,0.90000
  2097,'2097        ',230.0000,1,1,1,1,   1.08426, -28.62911,1.10000,0.90000,1.10000,0.90000
  2098,'2098        ',161.0000,1,1,1,1,   1.09587, -31.42163,1.10000,0.90000,1.10000,0.90000
  2099,'2099        ',18.0000,2,1,1,1,   1.08604, -28.98584,1.10000,0.90000,1.10000,0.90000
  2100,'2100        ',18.0000,2,1,1,1,   1.07787, -26.77312,1.10000,0.90000,1.10000,0.90000
  2101,'2101        ',500.0000,1,1,1,1,   1.07392, -60.07516,1.10000,0.90000,1.10000,0.90000
  2102,'2102        ',161.0000,1,1,1,1,   1.07567, -61.29904,1.10000,0.90000,1.10000,0.90000
  2103,'2103        ',20.0000,2,1,1,1,   1.07392, -60.07516,1.10000,0.90000,1.10000,0.90000
  2104,'2104        ',20.0000,2,1,1,1,   1.07392, -60.07516,1.10000,0.90000,1.10000,0.90000
  2105,'2105        ',20.0000,2,1,1,1,   1.07392, -60.07516,1.10000,0.90000,1.10000,0.90000
  2106,'2106        ',161.0000,1,1,1,1,   1.05877, -63.35606,1.10000,0.90000,1.10000,0.90000
  2107,'2107        ',161.0000,1,1,1,1,   1.07044, -62.02866,1.10000,0.90000,1.10000,0.90000
  2108,'2108        ',161.0000,1,1,1,1,   1.07224, -42.82488,1.10000,0.90000,1.10000,0.90000
  2109,'2109        ',161.0000,1,1,1,1,   1.07533, -45.66765,1.10000,0.90000,1.10000,0.90000
  2110,'2110        ',161.0000,1,1,1,1,   1.09444, -59.50918,1.10000,0.90000,1.10000,0.90000
  2111,'2111        ',161.0000,1,1,1,1,   1.06373, -47.36735,1.10000,0.90000,1.10000,0.90000
  2112,'2112        ',161.0000,1,1,1,1,   1.06079, -48.28107,1.10000,0.90000,1.10000,0.90000
  2113,'2113        ',500.0000,1,1,1,1,   1.08699, -55.31080,1.10000,0.90000,1.10000,0.90000
  2114,'2114        ',161.0000,1,1,1,1,   1.08475, -56.38996,1.10000,0.90000,1.10000,0.90000
  2115,'2115        ',13.8000,2,1,1,1,   1.09171, -51.88695,1.10000,0.90000,1.10000,0.90000
  2116,'2116        ',13.8000,2,1,1,1,   1.09015, -53.52383,1.10000,0.90000,1.10000,0.90000
  2117,'2117        ',13.8000,2,1,1,1,   1.09336, -51.34900,1.10000,0.90000,1.10000,0.90000
  2118,'2118        ',13.8000,2,1,1,1,   1.09353, -50.92462,1.10000,0.90000,1.10000,0.90000
  2119,'2119        ',13.8000,2,1,1,1,   1.09045, -53.13608,1.10000,0.90000,1.10000,0.90000
  2120,'2120        ',13.8000,2,1,1,1,   1.09312, -51.09468,1.10000,0.90000,1.10000,0.90000
  2121,'2121        ',161.0000,1,1,1,1,   1.08049, -58.41180,1.10000,0.90000,1.10000,0.90000
  2122,'2122        ',161.0000,1,1,1,1,   1.06995, -59.34730,1.10000,0.90000,1.10000,0.90000
  2123,'2123        ',161.0000,2,1,1,1,   1.09226, -28.30015,1.10000,0.90000,1.10000,0.90000
  2124,'2124        ',161.0000,1,1,1,1,   1.05602, -64.20058,1.10000,0.90000,1.10000,0.90000
  2125,'2125        ',161.0000,1,1,1,1,   1.05822, -63.86489,1.10000,0.90000,1.10000,0.90000
  2126,'2126        ',161.0000,1,1,1,1,   1.08029, -63.59166,1.10000,0.90000,1.10000,0.90000
  2127,'2127        ',500.0000,2,1,1,1,   1.09959, -34.45702,1.10000,0.90000,1.10000,0.90000
  2128,'2128        ',161.0000,1,1,1,1,   1.09154, -33.12202,1.10000,0.90000,1.10000,0.90000
  2129,'2129        ',161.0000,1,1,1,1,   1.06142, -63.27136,1.10000,0.90000,1.10000,0.90000
  2130,'2130        ',161.0000,1,1,1,1,   1.07432, -41.63273,1.10000,0.90000,1.10000,0.90000
  2131,'2131        ',115.0000,1,1,1,1,   1.06994, -39.40467,1.10000,0.90000,1.10000,0.90000
  2132,'2132        ',115.0000,1,1,1,1,   1.08857, -40.91178,1.10000,0.90000,1.10000,0.90000
  2133,'2133        ',161.0000,1,1,1,1,   1.08531, -57.95713,1.10000,0.90000,1.10000,0.90000
  3001,'3001        ',230.0000,1,1,1,1,   1.08023, -47.38025,1.10000,0.90000,1.10000,0.90000
  3002,'3002        ',115.0000,1,1,1,1,   1.06985, -49.63159,1.10000,0.90000,1.10000,0.90000
  3003,'3003        ',115.0000,1,1,1,1,   1.07799, -20.62569,1.10000,0.90000,1.10000,0.90000
  3004,'3004        ',18.0000,2,1,1,1,   1.07343, -19.20956,1.10000,0.90000,1.10000,0.90000
  3005,'3005        ',115.0000,1,1,1,1,   1.08927, -50.63032,1.10000,0.90000,1.10000,0.90000
  3006,'3006        ',115.0000,1,1,1,1,   1.07291, -28.23962,1.10000,0.90000,1.10000,0.90000
  3007,'3007        ',115.0000,1,1,1,1,   1.06996, -26.18097,1.10000,0.90000,1.10000,0.90000
  3008,'3008        ',115.0000,1,1,1,1,   1.06740, -36.35712,1.10000,0.90000,1.10000,0.90000
  3009,'3009        ',115.0000,1,1,1,1,   1.08478, -32.41373,1.10000,0.90000,1.10000,0.90000
  3010,'3010        ',115.0000,1,1,1,1,   1.07082, -49.71767,1.10000,0.90000,1.10000,0.90000
  3011,'3011        ',115.0000,1,1,1,1,   1.08814, -52.42633,1.10000,0.90000,1.10000,0.90000
  3012,'3012        ',115.0000,1,1,1,1,   1.08922, -52.00027,1.10000,0.90000,1.10000,0.90000
  3013,'3013        ',115.0000,1,1,1,1,   1.07722, -29.60038,1.10000,0.90000,1.10000,0.90000
  3014,'3014        ',115.0000,1,1,1,1,   1.07765, -46.39526,1.10000,0.90000,1.10000,0.90000
  3015,'3015        ',115.0000,1,1,1,1,   1.08732, -19.72035,1.10000,0.90000,1.10000,0.90000
  3016,'3016        ',115.0000,1,1,1,1,   1.06200, -23.67934,1.10000,0.90000,1.10000,0.90000
  3017,'3017        ',18.0000,2,1,1,1,   1.04354, -18.86692,1.10000,0.90000,1.10000,0.90000
  3018,'3018        ',230.0000,1,1,1,1,   1.07981, -30.46399,1.10000,0.90000,1.10000,0.90000
  3019,'3019        ',115.0000,1,1,1,1,   1.08339, -31.92942,1.10000,0.90000,1.10000,0.90000
  3020,'3020        ',13.8000,2,1,1,1,   1.06508, -26.64749,1.10000,0.90000,1.10000,0.90000
  3021,'3021        ',115.0000,1,1,1,1,   1.07259, -35.97179,1.10000,0.90000,1.10000,0.90000
  3022,'3022        ',115.0000,1,1,1,1,   1.07465, -20.67112,1.10000,0.90000,1.10000,0.90000
  3023,'3023        ',115.0000,1,1,1,1,   1.09810, -28.44506,1.10000,0.90000,1.10000,0.90000
  3024,'3024        ',115.0000,1,1,1,1,   1.08251, -32.34535,1.10000,0.90000,1.10000,0.90000
  3025,'3025        ',115.0000,1,1,1,1,   1.06905, -41.86410,1.10000,0.90000,1.10000,0.90000
  3026,'3026        ',230.0000,1,1,1,1,   1.06848, -36.88254,1.10000,0.90000,1.10000,0.90000
  3027,'3027        ',115.0000,1,1,1,1,   1.06606, -37.41998,1.10000,0.90000,1.10000,0.90000
  3028,'3028        ',18.0000,2,1,1,1,   1.05940, -34.42391,1.10000,0.90000,1.10000,0.90000
  3029,'3029        ',115.0000,1,1,1,1,   1.09060, -50.05916,1.10000,0.90000,1.10000,0.90000
  3030,'3030        ',115.0000,1,1,1,1,   1.08825, -39.88233,1.10000,0.90000,1.10000,0.90000
  3031,'3031        ',115.0000,1,1,1,1,   1.05858, -27.39322,1.10000,0.90000,1.10000,0.90000
  3032,'3032        ',115.0000,1,1,1,1,   1.05774, -28.31226,1.10000,0.90000,1.10000,0.90000
  3033,'3033        ',115.0000,1,1,1,1,   1.08913, -18.14089,1.10000,0.90000,1.10000,0.90000
  3034,'3034        ',22.0000,2,1,1,1,   1.10000, -10.09300,1.10000,0.90000,1.10000,0.90000
  3035,'3035        ',115.0000,1,1,1,1,   1.07358, -41.64991,1.10000,0.90000,1.10000,0.90000
  3036,'3036        ',115.0000,1,1,1,1,   1.07108, -39.71676,1.10000,0.90000,1.10000,0.90000
  3037,'3037        ',230.0000,1,1,1,1,   1.07707, -27.03372,1.10000,0.90000,1.10000,0.90000
  3038,'3038        ',115.0000,1,1,1,1,   1.07609, -22.33772,1.10000,0.90000,1.10000,0.90000
  3039,'3039        ',13.8000,2,1,1,1,   1.08158, -24.66340,1.10000,0.90000,1.10000,0.90000
  3040,'3040        ',115.0000,1,1,1,1,   1.06314, -34.76766,1.10000,0.90000,1.10000,0.90000
  3041,'3041        ',230.0000,1,1,1,1,   1.06665, -30.60587,1.10000,0.90000,1.10000,0.90000
  3042,'3042        ',115.0000,1,1,1,1,   1.06378, -21.85643,1.10000,0.90000,1.10000,0.90000
  3043,'3043        ',13.8000,2,1,1,1,   1.06665, -30.60587,1.10000,0.90000,1.10000,0.90000
  3044,'3044        ',13.8000,2,1,1,1,   1.06665, -30.60587,1.10000,0.90000,1.10000,0.90000
  3045,'3045        ',13.8000,2,1,1,1,   1.06665, -30.60587,1.10000,0.90000,1.10000,0.90000
  3046,'3046        ',230.0000,1,1,1,1,   1.07383, -35.30507,1.10000,0.90000,1.10000,0.90000
  3047,'3047        ',115.0000,1,1,1,1,   1.10000, -22.96313,1.10000,0.90000,1.10000,0.90000
  3048,'3048        ',500.0000,2,1,1,1,   1.08180, -41.31800,1.10000,0.90000,1.10000,0.90000
  3049,'3049        ',115.0000,1,1,1,1,   1.07607, -31.02415,1.10000,0.90000,1.10000,0.90000
  3050,'3050        ',230.0000,1,1,1,1,   1.10000, -34.41597,1.10000,0.90000,1.10000,0.90000
  3051,'3051        ',115.0000,1,1,1,1,   1.08387, -36.13672,1.10000,0.90000,1.10000,0.90000
  3052,'3052        ',115.0000,1,1,1,1,   1.07608, -50.56436,1.10000,0.90000,1.10000,0.90000
  3053,'3053        ',230.0000,1,1,1,1,   1.06648, -28.44756,1.10000,0.90000,1.10000,0.90000
  3054,'3054        ',115.0000,1,1,1,1,   1.05991, -27.79089,1.10000,0.90000,1.10000,0.90000
  3055,'3055        ',13.8000,2,1,1,1,   1.05775, -25.68674,1.10000,0.90000,1.10000,0.90000
  3056,'3056        ',13.8000,2,1,1,1,   1.05879, -23.24802,1.10000,0.90000,1.10000,0.90000
  3057,'3057        ',13.8000,2,1,1,1,   1.06446, -23.42976,1.10000,0.90000,1.10000,0.90000
  3058,'3058        ',230.0000,1,1,1,1,   1.06223, -25.90451,1.10000,0.90000,1.10000,0.90000
  3059,'3059        ',115.0000,1,1,1,1,   1.05939, -20.63371,1.10000,0.90000,1.10000,0.90000
  3060,'3060        ',18.0000,2,1,1,1,   1.02927, -18.43661,1.10000,0.90000,1.10000,0.90000
  3061,'3061        ',18.0000,2,1,1,1,   1.04067, -20.63983,1.10000,0.90000,1.10000,0.90000
  3062,'3062        ',18.0000,2,1,1,1,   1.05315, -23.27276,1.10000,0.90000,1.10000,0.90000
  3063,'3063        ',18.0000,2,1,1,1,   1.04852, -22.14397,1.10000,0.90000,1.10000,0.90000
  3064,'3064        ',115.0000,1,1,1,1,   1.08582, -21.11677,1.10000,0.90000,1.10000,0.90000
  3065,'3065        ',18.0000,2,1,1,1,   1.06652, -15.73898,1.10000,0.90000,1.10000,0.90000
  3066,'3066        ',115.0000,1,1,1,1,   1.08011, -40.92034,1.10000,0.90000,1.10000,0.90000
  3067,'3067        ',115.0000,1,1,1,1,   1.08392, -21.87979,1.10000,0.90000,1.10000,0.90000
  3068,'3068        ',20.0000,2,1,1,1,   1.08664, -19.24231,1.10000,0.90000,1.10000,0.90000
  3069,'3069        ',115.0000,1,1,1,1,   1.06063, -30.26718,1.10000,0.90000,1.10000,0.90000
  3070,'3070        ',115.0000,1,1,1,1,   1.07841, -22.97892,1.10000,0.90000,1.10000,0.90000
  3071,'3071        ',24.0000,2,1,1,1,   1.08326, -19.01432,1.10000,0.90000,1.10000,0.90000
  3072,'3072        ',115.0000,1,1,1,1,   1.08195, -38.52662,1.10000,0.90000,1.10000,0.90000
  3073,'3073        ',115.0000,1,1,1,1,   1.06897, -47.50907,1.10000,0.90000,1.10000,0.90000
  3074,'3074        ',13.8000,2,1,1,1,   1.06123, -45.27412,1.10000,0.90000,1.10000,0.90000
  3075,'3075        ',115.0000,1,1,1,1,   1.07790, -39.59317,1.10000,0.90000,1.10000,0.90000
  3076,'3076        ',115.0000,1,1,1,1,   1.06783, -48.67794,1.10000,0.90000,1.10000,0.90000
  3077,'3077        ',115.0000,1,1,1,1,   1.06023, -29.10342,1.10000,0.90000,1.10000,0.90000
  3078,'3078        ',230.0000,1,1,1,1,   1.07422, -27.37542,1.10000,0.90000,1.10000,0.90000
  3079,'3079        ',161.0000,1,1,1,1,   1.07865, -25.80854,1.10000,0.90000,1.10000,0.90000
  3080,'3080        ',115.0000,1,1,1,1,   1.07485, -23.25971,1.10000,0.90000,1.10000,0.90000
  3081,'3081        ',20.0000,2,1,1,1,   1.08360, -21.81014,1.10000,0.90000,1.10000,0.90000
  3082,'3082        ',230.0000,1,1,1,1,   1.06922, -29.27459,1.10000,0.90000,1.10000,0.90000
  3083,'3083        ',115.0000,1,1,1,1,   1.06311, -25.73659,1.10000,0.90000,1.10000,0.90000
  3084,'3084        ',13.8000,2,1,1,1,   1.09139, -20.71182,1.10000,0.90000,1.10000,0.90000
  3085,'3085        ',115.0000,1,1,1,1,   1.07968, -20.93023,1.10000,0.90000,1.10000,0.90000
  3086,'3086        ',13.2000,2,1,1,1,   1.09442, -15.06305,1.10000,0.90000,1.10000,0.90000
  3087,'3087        ',13.2000,2,1,1,1,   1.07968, -20.93023,1.10000,0.90000,1.10000,0.90000
  3088,'3088        ',230.0000,1,1,1,1,   1.07387, -33.84979,1.10000,0.90000,1.10000,0.90000
  3089,'3089        ',161.0000,1,1,1,1,   1.07478, -36.16272,1.10000,0.90000,1.10000,0.90000
  3090,'3090        ',161.0000,1,1,1,1,   1.07321, -36.75086,1.10000,0.90000,1.10000,0.90000
  3091,'3091        ',115.0000,1,1,1,1,   1.07129, -37.54736,1.10000,0.90000,1.10000,0.90000
  3092,'3092        ',13.8000,2,1,1,1,   1.04582, -27.33941,1.10000,0.90000,1.10000,0.90000
  3093,'3093        ',115.0000,1,1,1,1,   1.07326, -50.26999,1.10000,0.90000,1.10000,0.90000
  3094,'3094        ',115.0000,1,1,1,1,   1.06985, -24.90649,1.10000,0.90000,1.10000,0.90000
  3095,'3095        ',18.0000,2,1,1,1,   1.10000, -17.80271,1.10000,0.90000,1.10000,0.90000
  3096,'3096        ',230.0000,1,1,1,1,   1.06883, -23.44197,1.10000,0.90000,1.10000,0.90000
  3097,'3097        ',115.0000,1,1,1,1,   1.06388, -21.81159,1.10000,0.90000,1.10000,0.90000
  3098,'3098        ',13.8000,2,1,1,1,   1.03131, -15.01270,1.10000,0.90000,1.10000,0.90000