1043, 'GENSAL' ,1,7.0,0.03,0.035,3.0,1.0,1.2,0.8,0.22,0.2,0.16,0.05,0.3 /
1043, 'EXDC1' ,1,0.0,40.0,0.1,0.0,0.0,1.0,-1.0,0.1,0.5,0.05,0.7,0.0,2.8,0.08,3.7,0.33 /
1043, 'WSIEG1' ,1,0,0,25.0,0.0,0.0,0.1,1.0,-10.0,1.01,0.0,0.3,1.0,0.0,0.0,0.0,0.0,0.0,0.0,0.0,0.0,0.0,0.0,0.0,0.0,0.0,0.0,0.0,0.0,0.0,0.0,0.0,0.0,0.0,0.0,0.0,0 /
1048, 'GENSAL' ,1,7.0,0.03,0.035,3.0,1.0,1.2,0.8,0.22,0.2,0.16,0.05,0.3 /
1048, 'EXDC1' ,1,0.0,40.0,0.1,0.0,0.0,1.0,-1.0,0.1,0.5,0.05,0.7,0.0,2.8,0.08,3.7,0.33 /
1048, 'WSIEG1' ,1,0,0,25.0,0.0,0.0,0.1,1.0,-10.0,1.01,0.0,0.3,1.0,0.0,0.0,0.0,0.0,0.0,0.0,0.0,0.0,0.0,0.0,0.0,0.0,0.0,0.0,0.0,0.0,0.0,0.0,0.0,0.0,0.0,0.0,0.0,0 /
1049, 'GENSAL' ,1,7.0,0.03,0.035,3.0,1.0,1.2,0.8,0.22,0.2,0.16,0.05,0.3 /
1049, 'EXDC1' ,1,0.0,40.0,0.1,0.0,0.0,1.0,-1.0,0.1,0.5,0.05,0.7,0.0,2.8,0.08,3.7,0.33 /
1049, 'WSIEG1' ,1,0,0,25.0,0.0,0.0,0.1,1.0,-10.0,1.01,0.0,0.3,1.0,0.0,0.0,0.0,0.0,0.0,0.0,0.0,0.0,0.0,0.0,0.0,0.0,0.0,0.0,0.0,0.0,0.0,0.0,0.0,0.0,0.0,0.0,0.0,0 /
1053, 'GENSAL' ,1,7.0,0.03,0.035,3.0,1.0,1.2,0.8,0.22,0.2,0.16,0.05,0.3 /
1053, 'EXDC1' ,1,0.0,40.0,0.1,0.0,0.0,1.0,-1.0,0.1,0.5,0.05,0.7,0.0,2.8,0.08,3.7,0.33 /
1053, 'WSIEG1' ,1,0,0,25.0,0.0,0.0,0.1,1.0,-10.0,1.01,0.0,0.3,1.0,0.0,0.0,0.0,0.0,0.0,0.0,0.0,0.0,0.0,0.0,0.0,0.0,0.0,0.0,0.0,0.0,0.0,0.0,0.0,0.0,0.0,0.0,0.0,0 /
1063, 'GENSAL' ,1,7.0,0.03,0.035,3.0,1.0,1.2,0.8,0.22,0.2,0.16,0.05,0.3 /
1063, 'EXDC1' ,1,0.0,40.0,0.1,0.0,0.0,1.0,-1.0,0.1,0.5,0.05,0.7,0.0,2.8,0.08,3.7,0.33 /
1063, 'WSIEG1' ,1,0,0,25.0,0.0,0.0,0.1,1.0,-10.0,1.01,0.0,0.3,1.0,0.0,0.0,0.0,0.0,0.0,0.0,0.0,0.0,0.0,0.0,0.0,0.0,0.0,0.0,0.0,0.0,0.0,0.0,0.0,0.0,0.0,0.0,0.0,0 /
1072, 'GENSAL' ,1,7.0,0.03,0.035,3.0,1.0,1.2,0.8,0.22,0.2,0.16,0.05,0.3 /
1072, 'EXDC1' ,1,0.0,40.0,0.1,0.0,0.0,1.0,-1.0,0.1,0.5,0.05,0.7,0.0,2.8,0.08,3.7,0.33 /
1072, 'WSIEG1' ,1,0,0,25.0,0.0,0.0,0.1,1.0,-10.0,1.01,0.0,0.3,1.0,0.0,0.0,0.0,0.0,0.0,0.0,0.0,0.0,0.0,0.0,0.0,0.0,0.0,0.0,0.0,0.0,0.0,0.0,0.0,0.0,0.0,0.0,0.0,0 /
1073, 'GENSAL' ,1,7.0,0.03,0.035,3.0,1.0,1.2,0.8,0.22,0.2,0.16,0.05,0.3 /
1073, 'EXDC1' ,1,0.0,40.0,0.1,0.0,0.0,1.0,-1.0,0.1,0.5,0.05,0.7,0.0,2.8,0.08,3.7,0.33 /
1073, 'WSIEG1' ,1,0,0,25.0,0.0,0.0,0.1,1.0,-10.0,1.01,0.0,0.3,1.0,0.0,0.0,0.0,0.0,0.0,0.0,0.0,0.0,0.0,0.0,0.0,0.0,0.0,0.0,0.0,0.0,0.0,0.0,0.0,0.0,0.0,0.0,0.0,0 /
1074, 'GENSAL' ,1,7.0,0.03,0.035,3.0,1.0,1.2,0.8,0.22,0.2,0.16,0.05,0.3 /
1074, 'EXDC1' ,1,0.0,40.0,0.1,0.0,0.0,1.0,-1.0,0.1,0.5,0.05,0.7,0.0,2.8,0.08,3.7,0.33 /
1074, 'WSIEG1' ,1,0,0,25.0,0.0,0.0,0.1,1.0,-10.0,1.01,0.0,0.3,1.0,0.0,0.0,0.0,0.0,0.0,0.0,0.0,0.0,0.0,0.0,0.0,0.0,0.0,0.0,0.0,0.0,0.0,0.0,0.0,0.0,0.0,0.0,0.0,0 /
1075, 'GENSAL' ,1,7.0,0.03,0.035,3.0,1.0,1.2,0.8,0.22,0.2,0.16,0.05,0.3 /
1075, 'EXDC1' ,1,0.0,40.0,0.1,0.0,0.0,1.0,-1.0,0.1,0.5,0.05,0.7,0.0,2.8,0.08,3.7,0.33 /
1075, 'WSIEG1' ,1,0,0,25.0,0.0,0.0,0.1,1.0,-10.0,1.01,0.0,0.3,1.0,0.0,0.0,0.0,0.0,0.0,0.0,0.0,0.0,0.0,0.0,0.0,0.0,0.0,0.0,0.0,0.0,0.0,0.0,0.0,0.0,0.0,0.0,0.0,0 /
1076, 'GENSAL' ,1,7.0,0.03,0.035,3.0,1.0,1.2,0.8,0.22,0.2,0.16,0.05,0.3 /
1076, 'EXDC1' ,1,0.0,40.0,0.1,0.0,0.0,1.0,-1.0,0.1,0.5,0.05,0.7,0.0,2.8,0.08,3.7,0.33 /
1076, 'WSIEG1' ,1,0,0,25.0,0.0,0.0,0.1,1.0,-10.0,1.01,0.0,0.3,1.0,0.0,0.0,0.0,0.0,0.0,0.0,0.0,0.0,0.0,0.0,0.0,0.0,0.0,0.0,0.0,0.0,0.0,0.0,0.0,0.0,0.0,0.0,0.0,0 /
1077, 'GENSAL' ,1,7.0,0.03,0.035,3.0,1.0,1.2,0.8,0.22,0.2,0.16,0.05,0.3 /
1077, 'EXDC1' ,1,0.0,40.0,0.1,0.0,0.0,1.0,-1.0,0.1,0.5,0.05,0.7,0.0,2.8,0.08,3.7,0.33 /
1077, 'WSIEG1' ,1,0,0,25.0,0.0,0.0,0.1,1.0,-10.0,1.01,0.0,0.3,1.0,0.0,0.0,0.0,0.0,0.0,0.0,0.0,0.0,0.0,0.0,0.0,0.0,0.0,0.0,0.0,0.0,0.0,0.0,0.0,0.0,0.0,0.0,0.0,0 /
1081, 'GENSAL' ,1,7.0,0.03,0.035,3.0,1.0,1.2,0.8,0.22,0.2,0.16,0.05,0.3 /
1081, 'EXDC1' ,1,0.0,40.0,0.1,0.0,0.0,1.0,-1.0,0.1,0.5,0.05,0.7,0.0,2.8,0.08,3.7,0.33 /
1081, 'WSIEG1' ,1,0,0,25.0,0.0,0.0,0.1,1.0,-10.0,1.01,0.0,0.3,1.0,0.0,0.0,0.0,0.0,0.0,0.0,0.0,0.0,0.0,0.0,0.0,0.0,0.0,0.0,0.0,0.0,0.0,0.0,0.0,0.0,0.0,0.0,0.0,0 /
2004, 'GENSAL' ,1,7.0,0.03,0.035,3.0,1.0,1.2,0.8,0.22,0.2,0.16,0.05,0.3 /
2004, 'EXDC1' ,1,0.0,40.0,0.1,0.0,0.0,1.0,-1.0,0.1,0.5,0.05,0.7,0.0,2.8,0.08,3.7,0.33 /
2004, 'WSIEG1' ,1,0,0,25.0,0.0,0.0,0.1,1.0,-10.0,1.01,0.0,0.3,1.0,0.0,0.0,0.0,0.0,0.0,0.0,0.0,0.0,0.0,0.0,0.0,0.0,0.0,0.0,0.0,0.0,0.0,0.0,0.0,0.0,0.0,0.0,0.0,0 /
2005, 'GENSAL' ,1,7.0,0.03,0.035,3.0,1.0,1.2,0.8,0.22,0.2,0.16,0.05,0.3 /
2005, 'EXDC1' ,1,0.0,40.0,0.1,0.0,0.0,1.0,-1.0,0.1,0.5,0.05,0.7,0.0,2.8,0.08,3.7,0.33 /
2005, 'WSIEG1' ,1,0,0,25.0,0.0,0.0,0.1,1.0,-10.0,1.01,0.0,0.3,1.0,0.0,0.0,0.0,0.0,0.0,0.0,0.0,0.0,0.0,0.0,0.0,0.0,0.0,0.0,0.0,0.0,0.0,0.0,0.0,0.0,0.0,0.0,0.0,0 /
2006, 'GENSAL' ,1,7.0,0.03,0.035,3.0,1.0,1.2,0.8,0.22,0.2,0.16,0.05,0.3 /
2006, 'EXDC1' ,1,0.0,40.0,0.1,0.0,0.0,1.0,-1.0,0.1,0.5,0.05,0.7,0.0,2.8,0.08,3.7,0.33 /
2006, 'WSIEG1' ,1,0,0,25.0,0.0,0.0,0.1,1.0,-10.0,1.01,0.0,0.3,1.0,0.0,0.0,0.0,0.0,0.0,0.0,0.0,0.0,0.0,0.0,0.0,0.0,0.0,0.0,0.0,0.0,0.0,0.0,0.0,0.0,0.0,0.0,0.0,0 /
2013, 'GENSAL' ,1,7.0,0.03,0.035,3.0,1.0,1.2,0.8,0.22,0.2,0.16,0.05,0.3 /
2013, 'EXDC1' ,1,0.0,40.0,0.1,0.0,0.0,1.0,-1.0,0.1,0.5,0.05,0.7,0.0,2.8,0.08,3.7,0.33 /
2013, 'WSIEG1' ,1,0,0,25.0,0.0,0.0,0.1,1.0,-10.0,1.01,0.0,0.3,1.0,0.0,0.0,0.0,0.0,0.0,0.0,0.0,0.0,0.0,0.0,0.0,0.0,0.0,0.0,0.0,0.0,0.0,0.0,0.0,0.0,0.0,0.0,0.0,0 /
2024, 'GENSAL' ,1,7.0,0.03,0.035,3.0,1.0,1.2,0.8,0.22,0.2,0.16,0.05,0.3 /
2024, 'EXDC1' ,1,0.0,40.0,0.1,0.0,0.0,1.0,-1.0,0.1,0.5,0.05,0.7,0.0,2.8,0.08,3.7,0.33 /
2024, 'WSIEG1' ,1,0,0,25.0,0.0,0.0,0.1,1.0,-10.0,1.01,0.0,0.3,1.0,0.0,0.0,0.0,0.0,0.0,0.0,0.0,0.0,0.0,0.0,0.0,0.0,0.0,0.0,0.0,0.0,0.0,0.0,0.0,0.0,0.0,0.0,0.0,0 /
2042, 'GENSAL' ,1,7.0,0.03,0.035,3.0,1.0,1.2,0.8,0.22,0.2,0.16,0.05,0.3 /
2042, 'EXDC1' ,1,0.0,40.0,0.1,0.0,0.0,1.0,-1.0,0.1,0.5,0.05,0.7,0.0,2.8,0.08,3.7,0.33 /
2042, 'WSIEG1' ,1,0,0,25.0,0.0,0.0,0.1,1.0,-10.0,1.01,0.0,0.3,1.0,0.0,0.0,0.0,0.0,0.0,0.0,0.0,0.0,0.0,0.0,0.0,0.0,0.0,0.0,0.0,0.0,0.0,0.0,0.0,0.0,0.0,0.0,0.0,0 /
2057, 'GENSAL' ,1,7.0,0.03,0.035,3.0,1.0,1.2,0.8,0.22,0.2,0.16,0.05,0.3 /
2057, 'EXDC1' ,1,0.0,40.0,0.1,0.0,0.0,1.0,-1.0,0.1,0.5,0.05,0.7,0.0,2.8,0.08,3.7,0.33 /
2057, 'WSIEG1' ,1,0,0,25.0,0.0,0.0,0.1,1.0,-10.0,1.01,0.0,0.3,1.0,0.0,0.0,0.0,0.0,0.0,0.0,0.0,0.0,0.0,0.0,0.0,0.0,0.0,0.0,0.0,0.0,0.0,0.0,0.0,0.0,0.0,0.0,0.0,0 /
2059, 'GENSAL' ,1,7.0,0.03,0.035,3.0,1.0,1.2,0.8,0.22,0.2,0.16,0.05,0.3 /
2059, 'EXDC1' ,1,0.0,40.0,0.1,0.0,0.0,1.0,-1.0,0.1,0.5,0.05,0.7,0.0,2.8,0.08,3.7,0.33 /
2059, 'WSIEG1' ,1,0,0,25.0,0.0,0.0,0.1,1.0,-10.0,1.01,0.0,0.3,1.0,0.0,0.0,0.0,0.0,0.0,0.0,0.0,0.0,0.0,0.0,0.0,0.0,0.0,0.0,0.0,0.0,0.0,0.0,0.0,0.0,0.0,0.0,0.0,0 /
2089, 'GENSAL' ,1,7.0,0.03,0.035,3.0,1.0,1.2,0.8,0.22,0.2,0.16,0.05,0.3 /
2089, 'EXDC1' ,1,0.0,40.0,0.1,0.0,0.0,1.0,-1.0,0.1,0.5,0.05,0.7,0.0,2.8,0.08,3.7,0.33 /
2089, 'WSIEG1' ,1,0,0,25.0,0.0,0.0,0.1,1.0,-10.0,1.01,0.0,0.3,1.0,0.0,0.0,0.0,0.0,0.0,0.0,0.0,0.0,0.0,0.0,0.0,0.0,0.0,0.0,0.0,0.0,0.0,0.0,0.0,0.0,0.0,0.0,0.0,0 /
2103, 'GENSAL' ,1,7.0,0.03,0.035,3.0,1.0,1.2,0.8,0.22,0.2,0.16,0.05,0.3 /
2103, 'EXDC1' ,1,0.0,40.0,0.1,0.0,0.0,1.0,-1.0,0.1,0.5,0.05,0.7,0.0,2.8,0.08,3.7,0.33 /
2103, 'WSIEG1' ,1,0,0,25.0,0.0,0.0,0.1,1.0,-10.0,1.01,0.0,0.3,1.0,0.0,0.0,0.0,0.0,0.0,0.0,0.0,0.0,0.0,0.0,0.0,0.0,0.0,0.0,0.0,0.0,0.0,0.0,0.0,0.0,0.0,0.0,0.0,0 /
2104, 'GENSAL' ,1,7.0,0.03,0.035,3.0,1.0,1.2,0.8,0.22,0.2,0.16,0.05,0.3 /
2104, 'EXDC1' ,1,0.0,40.0,0.1,0.0,0.0,1.0,-1.0,0.1,0.5,0.05,0.7,0.0,2.8,0.08,3.7,0.33 /
2104, 'WSIEG1' ,1,0,0,25.0,0.0,0.0,0.1,1.0,-10.0,1.01,0.0,0.3,1.0,0.0,0.0,0.0,0.0,0.0,0.0,0.0,0.0,0.0,0.0,0.0,0.0,0.0,0.0,0.0,0.0,0.0,0.0,0.0,0.0,0.0,0.0,0.0,0 /
2105, 'GENSAL' ,1,7.0,0.03,0.035,3.0,1.0,1.2,0.8,0.22,0.2,0.16,0.05,0.3 /
2105, 'EXDC1' ,1,0.0,40.0,0.1,0.0,0.0,1.0,-1.0,0.1,0.5,0.05,0.7,0.0,2.8,0.08,3.7,0.33 /
2105, 'WSIEG1' ,1,0,0,25.0,0.0,0.0,0.1,1.0,-10.0,1.01,0.0,0.3,1.0,0.0,0.0,0.0,0.0,0.0,0.0,0.0,0.0,0.0,0.0,0.0,0.0,0.0,0.0,0.0,0.0,0.0,0.0,0.0,0.0,0.0,0.0,0.0,0 /
2115, 'GENSAL' ,1,7.0,0.03,0.035,3.0,1.0,1.2,0.8,0.22,0.2,0.16,0.05,0.3 /
2115, 'EXDC1' ,1,0.0,40.0,0.1,0.0,0.0,1.0,-1.0,0.1,0.5,0.05,0.7,0.0,2.8,0.08,3.7,0.33 /
2115, 'WSIEG1' ,1,0,0,25.0,0.0,0.0,0.1,1.0,-10.0,1.01,0.0,0.3,1.0,0.0,0.0,0.0,0.0,0.0,0.0,0.0,0.0,0.0,0.0,0.0,0.0,0.0,0.0,0.0,0.0,0.0,0.0,0.0,0.0,0.0,0.0,0.0,0 /
2116, 'GENSAL' ,1,7.0,0.03,0.035,3.0,1.0,1.2,0.8,0.22,0.2,0.16,0.05,0.3 /
2116, 'EXDC1' ,1,0.0,40.0,0.1,0.0,0.0,1.0,-1.0,0.1,0.5,0.05,0.7,0.0,2.8,0.08,3.7,0.33 /
2116, 'WSIEG1' ,1,0,0,25.0,0.0,0.0,0.1,1.0,-10.0,1.01,0.0,0.3,1.0,0.0,0.0,0.0,0.0,0.0,0.0,0.0,0.0,0.0,0.0,0.0,0.0,0.0,0.0,0.0,0.0,0.0,0.0,0.0,0.0,0.0,0.0,0.0,0 /
2117, 'GENSAL' ,1,7.0,0.03,0.035,3.0,1.0,1.2,0.8,0.22,0.2,0.16,0.05,0.3 /
2117, 'EXDC1' ,1,0.0,40.0,0.1,0.0,0.0,1.0,-1.0,0.1,0.5,0.05,0.7,0.0,2.8,0.08,3.7,0.33 /
2117, 'WSIEG1' ,1,0,0,25.0,0.0,0.0,0.1,1.0,-10.0,1.01,0.0,0.3,1.0,0.0,0.0,0.0,0.0,0.0,0.0,0.0,0.0,0.0,0.0,0.0,0.0,0.0,0.0,0.0,0.0,0.0,0.0,0.0,0.0,0.0,0.0,0.0,0 /
2118, 'GENSAL' ,1,7.0,0.03,0.035,3.0,1.0,1.2,0.8,0.22,0.2,0.16,0.05,0.3 /
2118, 'EXDC1' ,1,0.0,40.0,0.1,0.0,0.0,1.0,-1.0,0.1,0.5,0.05,0.7,0.0,2.8,0.08,3.7,0.33 /
2118, 'WSIEG1' ,1,0,0,25.0,0.0,0.0,0.1,1.0,-10.0,1.01,0.0,0.3,1.0,0.0,0.0,0.0,0.0,0.0,0.0,0.0,0.0,0.0,0.0,0.0,0.0,0.0,0.0,0.0,0.0,0.0,0.0,0.0,0.0,0.0,0.0,0.0,0 /
2119, 'GENSAL' ,1,7.0,0.03,0.035,3.0,1.0,1.2,0.8,0.22,0.2,0.16,0.05,0.3 /
2119, 'EXDC1' ,1,0.0,40.0,0.1,0.0,0.0,1.0,-1.0,0.1,0.5,0.05,0.7,0.0,2.8,0.08,3.7,0.33 /
2119, 'WSIEG1' ,1,0,0,25.0,0.0,0.0,0.1,1.0,-10.0,1.01,0.0,0.3,1.0,0.0,0.0,0.0,0.0,0.0,0.0,0.0,0.0,0.0,0.0,0.0,0.0,0.0,0.0,0.0,0.0,0.0,0.0,0.0,0.0,0.0,0.0,0.0,0 /
2120, 'GENSAL' ,1,7.0,0.03,0.035,3.0,1.0,1.2,0.8,0.22,0.2,0.16,0.05,0.3 /
2120, 'EXDC1' ,1,0.0,40.0,0.1,0.0,0.0,1.0,-1.0,0.1,0.5,0.05,0.7,0.0,2.8,0.08,3.7,0.33 /
2120, 'WSIEG1' ,1,0,0,25.0,0.0,0.0,0.1,1.0,-10.0,1.01,0.0,0.3,1.0,0.0,0.0,0.0,0.0,0.0,0.0,0.0,0.0,0.0,0.0,0.0,0.0,0.0,0.0,0.0,0.0,0.0,0.0,0.0,0.0,0.0,0.0,0.0,0 /
2123, 'GENSAL' ,1,7.0,0.03,0.035,3.0,1.0,1.2,0.8,0.22,0.2,0.16,0.05,0.3 /
2123, 'EXDC1' ,1,0.0,40.0,0.1,0.0,0.0,1.0,-1.0,0.1,0.5,0.05,0.7,0.0,2.8,0.08,3.7,0.33 /
2123, 'WSIEG1' ,1,0,0,25.0,0.0,0.0,0.1,1.0,-10.0,1.01,0.0,0.3,1.0,0.0,0.0,0.0,0.0,0.0,0.0,0.0,0.0,0.0,0.0,0.0,0.0,0.0,0.0,0.0,0.0,0.0,0.0,0.0,0.0,0.0,0.0,0.0,0 /
3045, 'GENSAL' ,1,7.0,0.03,0.035,3.0,1.0,1.2,0.8,0.22,0.2,0.16,0.05,0.3 /
3045, 'EXDC1' ,1,0.0,40.0,0.1,0.0,0.0,1.0,-1.0,0.1,0.5,0.05,0.7,0.0,2.8,0.08,3.7,0.33 /
3045, 'WSIEG1' ,1,0,0,25.0,0.0,0.0,0.1,1.0,-10.0,1.01,0.0,0.3,1.0,0.0,0.0,0.0,0.0,0.0,0.0,0.0,0.0,0.0,0.0,0.0,0.0,0.0,0.0,0.0,0.0,0.0,0.0,0.0,0.0,0.0,0.0,0.0,0 /
3106, 'GENSAL' ,1,7.0,0.03,0.035,3.0,1.0,1.2,0.8,0.22,0.2,0.16,0.05,0.3 /
3106, 'EXDC1' ,1,0.0,40.0,0.1,0.0,0.0,1.0,-1.0,0.1,0.5,0.05,0.7,0.0,2.8,0.08,3.7,0.33 /
3106, 'WSIEG1' ,1,0,0,25.0,0.0,0.0,0.1,1.0,-10.0,1.01,0.0,0.3,1.0,0.0,0.0,0.0,0.0,0.0,0.0,0.0,0.0,0.0,0.0,0.0,0.0,0.0,0.0,0.0,0.0,0.0,0.0,0.0,0.0,0.0,0.0,0.0,0 /
3117, 'GENSAL' ,1,7.0,0.03,0.035,3.0,1.0,1.2,0.8,0.22,0.2,0.16,0.05,0.3 /
3117, 'EXDC1' ,1,0.0,40.0,0.1,0.0,0.0,1.0,-1.0,0.1,0.5,0.05,0.7,0.0,2.8,0.08,3.7,0.33 /
3117, 'WSIEG1' ,1,0,0,25.0,0.0,0.0,0.1,1.0,-10.0,1.01,0.0,0.3,1.0,0.0,0.0,0.0,0.0,0.0,0.0,0.0,0.0,0.0,0.0,0.0,0.0,0.0,0.0,0.0,0.0,0.0,0.0,0.0,0.0,0.0,0.0,0.0,0 /
4026, 'GENSAL' ,1,7.0,0.03,0.035,3.0,1.0,1.2,0.8,0.22,0.2,0.16,0.05,0.3 /
4026, 'EXDC1' ,1,0.0,40.0,0.1,0.0,0.0,1.0,-1.0,0.1,0.5,0.05,0.7,0.0,2.8,0.08,3.7,0.33 /
4026, 'WSIEG1' ,1,0,0,25.0,0.0,0.0,0.1,1.0,-10.0,1.01,0.0,0.3,1.0,0.0,0.0,0.0,0.0,0.0,0.0,0.0,0.0,0.0,0.0,0.0,0.0,0.0,0.0,0.0,0.0,0.0,0.0,0.0,0.0,0.0,0.0,0.0,0 /
4030, 'GENSAL' ,1,7.0,0.03,0.035,3.0,1.0,1.2,0.8,0.22,0.2,0.16,0.05,0.3 /
4030, 'EXDC1' ,1,0.0,40.0,0.1,0.0,0.0,1.0,-1.0,0.1,0.5,0.05,0.7,0.0,2.8,0.08,3.7,0.33 /
4030, 'WSIEG1' ,1,0,0,25.0,0.0,0.0,0.1,1.0,-10.0,1.01,0.0,0.3,1.0,0.0,0.0,0.0,0.0,0.0,0.0,0.0,0.0,0.0,0.0,0.0,0.0,0.0,0.0,0.0,0.0,0.0,0.0,0.0,0.0,0.0,0.0,0.0,0 /
4045, 'GENSAL' ,1,7.0,0.03,0.035,3.0,1.0,1.2,0.8,0.22,0.2,0.16,0.05,0.3 /
4045, 'EXDC1' ,1,0.0,40.0,0.1,0.0,0.0,1.0,-1.0,0.1,0.5,0.05,0.7,0.0,2.8,0.08,3.7,0.33 /
4045, 'WSIEG1' ,1,0,0,25.0,0.0,0.0,0.1,1.0,-10.0,1.01,0.0,0.3,1.0,0.0,0.0,0.0,0.0,0.0,0.0,0.0,0.0,0.0,0.0,0.0,0.0,0.0,0.0,0.0,0.0,0.0,0.0,0.0,0.0,0.0,0.0,0.0,0 /
4047, 'GENSAL' ,1,7.0,0.03,0.035,3.0,1.0,1.2,0.8,0.22,0.2,0.16,0.05,0.3 /
4047, 'EXDC1' ,1,0.0,40.0,0.1,0.0,0.0,1.0,-1.0,0.1,0.5,0.05,0.7,0.0,2.8,0.08,3.7,0.33 /
4047, 'WSIEG1' ,1,0,0,25.0,0.0,0.0,0.1,1.0,-10.0,1.01,0.0,0.3,1.0,0.0,0.0,0.0,0.0,0.0,0.0,0.0,0.0,0.0,0.0,0.0,0.0,0.0,0.0,0.0,0.0,0.0,0.0,0.0,0.0,0.0,0.0,0.0,0 /
4058, 'GENSAL' ,1,7.0,0.03,0.035,3.0,1.0,1.2,0.8,0.22,0.2,0.16,0.05,0.3 /
4058, 'EXDC1' ,1,0.0,40.0,0.1,0.0,0.0,1.0,-1.0,0.1,0.5,0.05,0.7,0.0,2.8,0.08,3.7,0.33 /
4058, 'WSIEG1' ,1,0,0,25.0,0.0,0.0,0.1,1.0,-10.0,1.01,0.0,0.3,1.0,0.0,0.0,0.0,0.0,0.0,0.0,0.0,0.0,0.0,0.0,0.0,0.0,0.0,0.0,0.0,0.0,0.0,0.0,0.0,0.0,0.0,0.0,0.0,0 /
4059, 'GENSAL' ,1,7.0,0.03,0.035,3.0,1.0,1.2,0.8,0.22,0.2,0.16,0.05,0.3 /
4059, 'EXDC1' ,1,0.0,40.0,0.1,0.0,0.0,1.0,-1.0,0.1,0.5,0.05,0.7,0.0,2.8,0.08,3.7,0.33 /
4059, 'WSIEG1' ,1,0,0,25.0,0.0,0.0,0.1,1.0,-10.0,1.01,0.0,0.3,1.0,0.0,0.0,0.0,0.0,0.0,0.0,0.0,0.0,0.0,0.0,0.0,0.0,0.0,0.0,0.0,0.0,0.0,0.0,0.0,0.0,0.0,0.0,0.0,0 /
4060, 'GENSAL' ,1,7.0,0.03,0.035,3.0,1.0,1.2,0.8,0.22,0.2,0.16,0.05,0.3 /
4060, 'EXDC1' ,1,0.0,40.0,0.1,0.0,0.0,1.0,-1.0,0.1,0.5,0.05,0.7,0.0,2.8,0.08,3.7,0.33 /
4060, 'WSIEG1' ,1,0,0,25.0,0.0,0.0,0.1,1.0,-10.0,1.01,0.0,0.3,1.0,0.0,0.0,0.0,0.0,0.0,0.0,0.0,0.0,0.0,0.0,0.0,0.0,0.0,0.0,0.0,0.0,0.0,0.0,0.0,0.0,0.0,0.0,0.0,0 /
4061, 'GENSAL' ,1,7.0,0.03,0.035,3.0,1.0,1.2,0.8,0.22,0.2,0.16,0.05,0.3 /
4061, 'EXDC1' ,1,0.0,40.0,0.1,0.0,0.0,1.0,-1.0,0.1,0.5,0.05,0.7,0.0,2.8,0.08,3.7,0.33 /
4061, 'WSIEG1' ,1,0,0,25.0,0.0,0.0,0.1,1.0,-10.0,1.01,0.0,0.3,1.0,0.0,0.0,0.0,0.0,0.0,0.0,0.0,0.0,0.0,0.0,0.0,0.0,0.0,0.0,0.0,0.0,0.0,0.0,0.0,0.0,0.0,0.0,0.0,0 /
4062, 'GENSAL' ,1,7.0,0.03,0.035,3.0,1.0,1.2,0.8,0.22,0.2,0.16,0.05,0.3 /
4062, 'EXDC1' ,1,0.0,40.0,0.1,0.0,0.0,1.0,-1.0,0.1,0.5,0.05,0.7,0.0,2.8,0.08,3.7,0.33 /
4062, 'WSIEG1' ,1,0,0,25.0,0.0,0.0,0.1,1.0,-10.0,1.01,0.0,0.3,1.0,0.0,0.0,0.0,0.0,0.0,0.0,0.0,0.0,0.0,0.0,0.0,0.0,0.0,0.0,0.0,0.0,0.0,0.0,0.0,0.0,0.0,0.0,0.0,0 /
4063, 'GENSAL' ,1,7.0,0.03,0.035,3.0,1.0,1.2,0.8,0.22,0.2,0.16,0.05,0.3 /
4063, 'EXDC1' ,1,0.0,40.0,0.1,0.0,0.0,1.0,-1.0,0.1,0.5,0.05,0.7,0.0,2.8,0.08,3.7,0.33 /
4063, 'WSIEG1' ,1,0,0,25.0,0.0,0.0,0.1,1.0,-10.0,1.01,0.0,0.3,1.0,0.0,0.0,0.0,0.0,0.0,0.0,0.0,0.0,0.0,0.0,0.0,0.0,0.0,0.0,0.0,0.0,0.0,0.0,0.0,0.0,0.0,0.0,0.0,0 /
4082, 'GENSAL' ,1,7.0,0.03,0.035,3.0,1.0,1.2,0.8,0.22,0.2,0.16,0.05,0.3 /
4082, 'EXDC1' ,1,0.0,40.0,0.1,0.0,0.0,1.0,-1.0,0.1,0.5,0.05,0.7,0.0,2.8,0.08,3.7,0.33 /
4082, 'WSIEG1' ,1,0,0,25.0,0.0,0.0,0.1,1.0,-10.0,1.01,0.0,0.3,1.0,0.0,0.0,0.0,0.0,0.0,0.0,0.0,0.0,0.0,0.0,0.0,0.0,0.0,0.0,0.0,0.0,0.0,0.0,0.0,0.0,0.0,0.0,0.0,0 /
4083, 'GENSAL' ,1,7.0,0.03,0.035,3.0,1.0,1.2,0.8,0.22,0.2,0.16,0.05,0.3 /
4083, 'EXDC1' ,1,0.0,40.0,0.1,0.0,0.0,1.0,-1.0,0.1,0.5,0.05,0.7,0.0,2.8,0.08,3.7,0.33 /
4083, 'WSIEG1' ,1,0,0,25.0,0.0,0.0,0.1,1.0,-10.0,1.01,0.0,0.3,1.0,0.0,0.0,0.0,0.0,0.0,0.0,0.0,0.0,0.0,0.0,0.0,0.0,0.0,0.0,0.0,0.0,0.0,0.0,0.0,0.0,0.0,0.0,0.0,0 /
4084, 'GENSAL' ,1,7.0,0.03,0.035,3.0,1.0,1.2,0.8,0.22,0.2,0.16,0.05,0.3 /
4084, 'EXDC1' ,1,0.0,40.0,0.1,0.0,0.0,1.0,-1.0,0.1,0.5,0.05,0.7,0.0,2.8,0.08,3.7,0.33 /
4084, 'WSIEG1' ,1,0,0,25.0,0.0,0.0,0.1,1.0,-10.0,1.01,0.0,0.3,1.0,0.0,0.0,0.0,0.0,0.0,0.0,0.0,0.0,0.0,0.0,0.0,0.0,0.0,0.0,0.0,0.0,0.0,0.0,0.0,0.0,0.0,0.0,0.0,0 /
4085, 'GENSAL' ,1,7.0,0.03,0.035,3.0,1.0,1.2,0.8,0.22,0.2,0.16,0.05,0.3 /
4085, 'EXDC1' ,1,0.0,40.0,0.1,0.0,0.0,1.0,-1.0,0.1,0.5,0.05,0.7,0.0,2.8,0.08,3.7,0.33 /
4085, 'WSIEG1' ,1,0,0,25.0,0.0,0.0,0.1,1.0,-10.0,1.01,0.0,0.3,1.0,0.0,0.0,0.0,0.0,0.0,0.0,0.0,0.0,0.0,0.0,0.0,0.0,0.0,0.0,0.0,0.0,0.0,0.0,0.0,0.0,0.0,0.0,0.0,0 /
4115, 'GENSAL' ,1,7.0,0.03,0.035,3.0,1.0,1.2,0.8,0.22,0.2,0.16,0.05,0.3 /
4115, 'EXDC1' ,1,0.0,40.0,0.1,0.0,0.0,1.0,-1.0,0.1,0.5,0.05,0.7,0.0,2.8,0.08,3.7,0.33 /
4115, 'WSIEG1' ,1,0,0,25.0,0.0,0.0,0.1,1.0,-10.0,1.01,0.0,0.3,1.0,0.0,0.0,0.0,0.0,0.0,0.0,0.0,0.0,0.0,0.0,0.0,0.0,0.0,0.0,0.0,0.0,0.0,0.0,0.0,0.0,0.0,0.0,0.0,0 /
4116, 'GENSAL' ,1,7.0,0.03,0.035,3.0,1.0,1.2,0.8,0.22,0.2,0.16,0.05,0.3 /
4116, 'EXDC1' ,1,0.0,40.0,0.1,0.0,0.0,1.0,-1.0,0.1,0.5,0.05,0.7,0.0,2.8,0.08,3.7,0.33 /
4116, 'WSIEG1' ,1,0,0,25.0,0.0,0.0,0.1,1.0,-10.0,1.01,0.0,0.3,1.0,0.0,0.0,0.0,0.0,0.0,0.0,0.0,0.0,0.0,0.0,0.0,0.0,0.0,0.0,0.0,0.0,0.0,0.0,0.0,0.0,0.0,0.0,0.0,0 /
4160, 'GENSAL' ,1,7.0,0.03,0.035,3.0,1.0,1.2,0.8,0.22,0.2,0.16,0.05,0.3 /
4160, 'EXDC1' ,1,0.0,40.0,0.1,0.0,0.0,1.0,-1.0,0.1,0.5,0.05,0.7,0.0,2.8,0.08,3.7,0.33 /
4160, 'WSIEG1' ,1,0,0,25.0,0.0,0.0,0.1,1.0,-10.0,1.01,0.0,0.3,1.0,0.0,0.0,0.0,0.0,0.0,0.0,0.0,0.0,0.0,0.0,0.0,0.0,0.0,0.0,0.0,0.0,0.0,0.0,0.0,0.0,0.0,0.0,0.0,0 /
4161, 'GENSAL' ,1,7.0,0.03,0.035,3.0,1.0,1.2,0.8,0.22,0.2,0.16,0.05,0.3 /
4161, 'EXDC1' ,1,0.0,40.0,0.1,0.0,0.0,1.0,-1.0,0.1,0.5,0.05,0.7,0.0,2.8,0.08,3.7,0.33 /
4161, 'WSIEG1' ,1,0,0,25.0,0.0,0.0,0.1,1.0,-10.0,1.01,0.0,0.3,1.0,0.0,0.0,0.0,0.0,0.0,0.0,0.0,0.0,0.0,0.0,0.0,0.0,0.0,0.0,0.0,0.0,0.0,0.0,0.0,0.0,0.0,0.0,0.0,0 /
4162, 'GENSAL' ,1,7.0,0.03,0.035,3.0,1.0,1.2,0.8,0.22,0.2,0.16,0.05,0.3 /
4162, 'EXDC1' ,1,0.0,40.0,0.1,0.0,0.0,1.0,-1.0,0.1,0.5,0.05,0.7,0.0,2.8,0.08,3.7,0.33 /
4162, 'WSIEG1' ,1,0,0,25.0,0.0,0.0,0.1,1.0,-10.0,1.01,0.0,0.3,1.0,0.0,0.0,0.0,0.0,0.0,0.0,0.0,0.0,0.0,0.0,0.0,0.0,0.0,0.0,0.0,0.0,0.0,0.0,0.0,0.0,0.0,0.0,0.0,0 /
4192, 'GENSAL' ,1,7.0,0.03,0.035,3.0,1.0,1.2,0.8,0.22,0.2,0.16,0.05,0.3 /
4192, 'EXDC1' ,1,0.0,40.0,0.1,0.0,0.0,1.0,-1.0,0.1,0.5,0.05,0.7,0.0,2.8,0.08,3.7,0.33 /
4192, 'WSIEG1' ,1,0,0,25.0,0.0,0.0,0.1,1.0,-10.0,1.01,0.0,0.3,1.0,0.0,0.0,0.0,0.0,0.0,0.0,0.0,0.0,0.0,0.0,0.0,0.0,0.0,0.0,0.0,0.0,0.0,0.0,0.0,0.0,0.0,0.0,0.0,0 /
5037, 'GENSAL' ,1,7.0,0.03,0.035,3.0,1.0,1.2,0.8,0.22,0.2,0.16,0.05,0.3 /
5037, 'EXDC1' ,1,0.0,40.0,0.1,0.0,0.0,1.0,-1.0,0.1,0.5,0.05,0.7,0.0,2.8,0.08,3.7,0.33 /
5037, 'WSIEG1' ,1,0,0,25.0,0.0,0.0,0.1,1.0,-10.0,1.01,0.0,0.3,1.0,0.0,0.0,0.0,0.0,0.0,0.0,0.0,0.0,0.0,0.0,0.0,0.0,0.0,0.0,0.0,0.0,0.0,0.0,0.0,0.0,0.0,0.0,0.0,0 /
5038, 'GENSAL' ,1,7.0,0.03,0.035,3.0,1.0,1.2,0.8,0.22,0.2,0.16,0.05,0.3 /
5038, 'EXDC1' ,1,0.0,40.0,0.1,0.0,0.0,1.0,-1.0,0.1,0.5,0.05,0.7,0.0,2.8,0.08,3.7,0.33 /
5038, 'WSIEG1' ,1,0,0,25.0,0.0,0.0,0.1,1.0,-10.0,1.01,0.0,0.3,1.0,0.0,0.0,0.0,0.0,0.0,0.0,0.0,0.0,0.0,0.0,0.0,0.0,0.0,0.0,0.0,0.0,0.0,0.0,0.0,0.0,0.0,0.0,0.0,0 /
5039, 'GENSAL' ,1,7.0,0.03,0.035,3.0,1.0,1.2,0.8,0.22,0.2,0.16,0.05,0.3 /
5039, 'EXDC1' ,1,0.0,40.0,0.1,0.0,0.0,1.0,-1.0,0.1,0.5,0.05,0.7,0.0,2.8,0.08,3.7,0.33 /
5039, 'WSIEG1' ,1,0,0,25.0,0.0,0.0,0.1,1.0,-10.0,1.01,0.0,0.3,1.0,0.0,0.0,0.0,0.0,0.0,0.0,0.0,0.0,0.0,0.0,0.0,0.0,0.0,0.0,0.0,0.0,0.0,0.0,0.0,0.0,0.0,0.0,0.0,0 /
5040, 'GENSAL' ,1,7.0,0.03,0.035,3.0,1.0,1.2,0.8,0.22,0.2,0.16,0.05,0.3 /
5040, 'EXDC1' ,1,0.0,40.0,0.1,0.0,0.0,1.0,-1.0,0.1,0.5,0.05,0.7,0.0,2.8,0.08,3.7,0.33 /
5040, 'WSIEG1' ,1,0,0,25.0,0.0,0.0,0.1,1.0,-10.0,1.01,0.0,0.3,1.0,0.0,0.0,0.0,0.0,0.0,0.0,0.0,0.0,0.0,0.0,0.0,0.0,0.0,0.0,0.0,0.0,0.0,0.0,0.0,0.0,0.0,0.0,0.0,0 /
5041, 'GENSAL' ,1,7.0,0.03,0.035,3.0,1.0,1.2,0.8,0.22,0.2,0.16,0.05,0.3 /
5041, 'EXDC1' ,1,0.0,40.0,0.1,0.0,0.0,1.0,-1.0,0.1,0.5,0.05,0.7,0.0,2.8,0.08,3.7,0.33 /
5041, 'WSIEG1' ,1,0,0,25.0,0.0,0.0,0.1,1.0,-10.0,1.01,0.0,0.3,1.0,0.0,0.0,0.0,0.0,0.0,0.0,0.0,0.0,0.0,0.0,0.0,0.0,0.0,0.0,0.0,0.0,0.0,0.0,0.0,0.0,0.0,0.0,0.0,0 /
5042, 'GENSAL' ,1,7.0,0.03,0.035,3.0,1.0,1.2,0.8,0.22,0.2,0.16,0.05,0.3 /
5042, 'EXDC1' ,1,0.0,40.0,0.1,0.0,0.0,1.0,-1.0,0.1,0.5,0.05,0.7,0.0,2.8,0.08,3.7,0.33 /
5042, 'WSIEG1' ,1,0,0,25.0,0.0,0.0,0.1,1.0,-10.0,1.01,0.0,0.3,1.0,0.0,0.0,0.0,0.0,0.0,0.0,0.0,0.0,0.0,0.0,0.0,0.0,0.0,0.0,0.0,0.0,0.0,0.0,0.0,0.0,0.0,0.0,0.0,0 /
5057, 'GENSAL' ,1,7.0,0.03,0.035,3.0,1.0,1.2,0.8,0.22,0.2,0.16,0.05,0.3 /
5057, 'EXDC1' ,1,0.0,40.0,0.1,0.0,0.0,1.0,-1.0,0.1,0.5,0.05,0.7,0.0,2.8,0.08,3.7,0.33 /
5057, 'WSIEG1' ,1,0,0,25.0,0.0,0.0,0.1,1.0,-10.0,1.01,0.0,0.3,1.0,0.0,0.0,0.0,0.0,0.0,0.0,0.0,0.0,0.0,0.0,0.0,0.0,0.0,0.0,0.0,0.0,0.0,0.0,0.0,0.0,0.0,0.0,0.0,0 /
5058, 'GENSAL' ,1,7.0,0.03,0.035,3.0,1.0,1.2,0.8,0.22,0.2,0.16,0.05,0.3 /
5058, 'EXDC1' ,1,0.0,40.0,0.1,0.0,0.0,1.0,-1.0,0.1,0.5,0.05,0.7,0.0,2.8,0.08,3.7,0.33 /
5058, 'WSIEG1' ,1,0,0,25.0,0.0,0.0,0.1,1.0,-10.0,1.01,0.0,0.3,1.0,0.0,0.0,0.0,0.0,0.0,0.0,0.0,0.0,0.0,0.0,0.0,0.0,0.0,0.0,0.0,0.0,0.0,0.0,0.0,0.0,0.0,0.0,0.0,0 /
5067, 'GENSAL' ,1,7.0,0.03,0.035,3.0,1.0,1.2,0.8,0.22,0.2,0.16,0.05,0.3 /
5067, 'EXDC1' ,1,0.0,40.0,0.1,0.0,0.0,1.0,-1.0,0.1,0.5,0.05,0.7,0.0,2.8,0.08,3.7,0.33 /
5067, 'WSIEG1' ,1,0,0,25.0,0.0,0.0,0.1,1.0,-10.0,1.01,0.0,0.3,1.0,0.0,0.0,0.0,0.0,0.0,0.0,0.0,0.0,0.0,0.0,0.0,0.0,0.0,0.0,0.0,0.0,0.0,0.0,0.0,0.0,0.0,0.0,0.0,0 /
5068, 'GENSAL' ,1,7.0,0.03,0.035,3.0,1.0,1.2,0.8,0.22,0.2,0.16,0.05,0.3 /
5068, 'EXDC1' ,1,0.0,40.0,0.1,0.0,0.0,1.0,-1.0,0.1,0.5,0.05,0.7,0.0,2.8,0.08,3.7,0.33 /
5068, 'WSIEG1' ,1,0,0,25.0,0.0,0.0,0.1,1.0,-10.0,1.01,0.0,0.3,1.0,0.0,0.0,0.0,0.0,0.0,0.0,0.0,0.0,0.0,0.0,0.0,0.0,0.0,0.0,0.0,0.0,0.0,0.0,0.0,0.0,0.0,0.0,0.0,0 /
5069, 'GENSAL' ,1,7.0,0.03,0.035,3.0,1.0,1.2,0.8,0.22,0.2,0.16,0.05,0.3 /
5069, 'EXDC1' ,1,0.0,40.0,0.1,0.0,0.0,1.0,-1.0,0.1,0.5,0.05,0.7,0.0,2.8,0.08,3.7,0.33 /
5069, 'WSIEG1' ,1,0,0,25.0,0.0,0.0,0.1,1.0,-10.0,1.01,0.0,0.3,1.0,0.0,0.0,0.0,0.0,0.0,0.0,0.0,0.0,0.0,0.0,0.0,0.0,0.0,0.0,0.0,0.0,0.0,0.0,0.0,0.0,0.0,0.0,0.0,0 /
5089, 'GENSAL' ,1,7.0,0.03,0.035,3.0,1.0,1.2,0.8,0.22,0.2,0.16,0.05,0.3 /
5089, 'EXDC1' ,1,0.0,40.0,0.1,0.0,0.0,1.0,-1.0,0.1,0.5,0.05,0.7,0.0,2.8,0.08,3.7,0.33 /
5089, 'WSIEG1' ,1,0,0,25.0,0.0,0.0,0.1,1.0,-10.0,1.01,0.0,0.3,1.0,0.0,0.0,0.0,0.0,0.0,0.0,0.0,0.0,0.0,0.0,0.0,0.0,0.0,0.0,0.0,0.0,0.0,0.0,0.0,0.0,0.0,0.0,0.0,0 /
5166, 'GENSAL' ,1,7.0,0.03,0.035,3.0,1.0,1.2,0.8,0.22,0.2,0.16,0.05,0.3 /
5166, 'EXDC1' ,1,0.0,40.0,0.1,0.0,0.0,1.0,-1.0,0.1,0.5,0.05,0.7,0.0,2.8,0.08,3.7,0.33 /
5166, 'WSIEG1' ,1,0,0,25.0,0.0,0.0,0.1,1.0,-10.0,1.01,0.0,0.3,1.0,0.0,0.0,0.0,0.0,0.0,0.0,0.0,0.0,0.0,0.0,0.0,0.0,0.0,0.0,0.0,0.0,0.0,0.0,0.0,0.0,0.0,0.0,0.0,0 /
5170, 'GENSAL' ,1,7.0,0.03,0.035,3.0,1.0,1.2,0.8,0.22,0.2,0.16,0.05,0.3 /
5170, 'EXDC1' ,1,0.0,40.0,0.1,0.0,0.0,1.0,-1.0,0.1,0.5,0.05,0.7,0.0,2.8,0.08,3.7,0.33 /
5170, 'WSIEG1' ,1,0,0,25.0,0.0,0.0,0.1,1.0,-10.0,1.01,0.0,0.3,1.0,0.0,0.0,0.0,0.0,0.0,0.0,0.0,0.0,0.0,0.0,0.0,0.0,0.0,0.0,0.0,0.0,0.0,0.0,0.0,0.0,0.0,0.0,0.0,0 /
5206, 'GENSAL' ,1,7.0,0.03,0.035,3.0,1.0,1.2,0.8,0.22,0.2,0.16,0.05,0.3 /
5206, 'EXDC1' ,1,0.0,40.0,0.1,0.0,0.0,1.0,-1.0,0.1,0.5,0.05,0.7,0.0,2.8,0.08,3.7,0.33 /
5206, 'WSIEG1' ,1,0,0,25.0,0.0,0.0,0.1,1.0,-10.0,1.01,0.0,0.3,1.0,0.0,0.0,0.0,0.0,0.0,0.0,0.0,0.0,0.0,0.0,0.0,0.0,0.0,0.0,0.0,0.0,0.0,0.0,0.0,0.0,0.0,0.0,0.0,0 /
5207, 'GENSAL' ,1,7.0,0.03,0.035,3.0,1.0,1.2,0.8,0.22,0.2,0.16,0.05,0.3 /
5207, 'EXDC1' ,1,0.0,40.0,0.1,0.0,0.0,1.0,-1.0,0.1,0.5,0.05,0.7,0.0,2.8,0.08,3.7,0.33 /
5207, 'WSIEG1' ,1,0,0,25.0,0.0,0.0,0.1,1.0,-10.0,1.01,0.0,0.3,1.0,0.0,0.0,0.0,0.0,0.0,0.0,0.0,0.0,0.0,0.0,0.0,0.0,0.0,0.0,0.0,0.0,0.0,0.0,0.0,0.0,0.0,0.0,0.0,0 /
5208, 'GENSAL' ,1,7.0,0.03,0.035,3.0,1.0,1.2,0.8,0.22,0.2,0.16,0.05,0.3 /
5208, 'EXDC1' ,1,0.0,40.0,0.1,0.0,0.0,1.0,-1.0,0.1,0.5,0.05,0.7,0.0,2.8,0.08,3.7,0.33 /
5208, 'WSIEG1' ,1,0,0,25.0,0.0,0.0,0.1,1.0,-10.0,1.01,0.0,0.3,1.0,0.0,0.0,0.0,0.0,0.0,0.0,0.0,0.0,0.0,0.0,0.0,0.0,0.0,0.0,0.0,0.0,0.0,0.0,0.0,0.0,0.0,0.0,0.0,0 /
5262, 'GENSAL' ,1,7.0,0.03,0.035,3.0,1.0,1.2,0.8,0.22,0.2,0.16,0.05,0.3 /
5262, 'EXDC1' ,1,0.0,40.0,0.1,0.0,0.0,1.0,-1.0,0.1,0.5,0.05,0.7,0.0,2.8,0.08,3.7,0.33 /
5262, 'WSIEG1' ,1,0,0,25.0,0.0,0.0,0.1,1.0,-10.0,1.01,0.0,0.3,1.0,0.0,0.0,0.0,0.0,0.0,0.0,0.0,0.0,0.0,0.0,0.0,0.0,0.0,0.0,0.0,0.0,0.0,0.0,0.0,0.0,0.0,0.0,0.0,0 /
5263, 'GENSAL' ,1,7.0,0.03,0.035,3.0,1.0,1.2,0.8,0.22,0.2,0.16,0.05,0.3 /
5263, 'EXDC1' ,1,0.0,40.0,0.1,0.0,0.0,1.0,-1.0,0.1,0.5,0.05,0.7,0.0,2.8,0.08,3.7,0.33 /
5263, 'WSIEG1' ,1,0,0,25.0,0.0,0.0,0.1,1.0,-10.0,1.01,0.0,0.3,1.0,0.0,0.0,0.0,0.0,0.0,0.0,0.0,0.0,0.0,0.0,0.0,0.0,0.0,0.0,0.0,0.0,0.0,0.0,0.0,0.0,0.0,0.0,0.0,0 /
5281, 'GENSAL' ,1,7.0,0.03,0.035,3.0,1.0,1.2,0.8,0.22,0.2,0.16,0.05,0.3 /
5281, 'EXDC1' ,1,0.0,40.0,0.1,0.0,0.0,1.0,-1.0,0.1,0.5,0.05,0.7,0.0,2.8,0.08,3.7,0.33 /
5281, 'WSIEG1' ,1,0,0,25.0,0.0,0.0,0.1,1.0,-10.0,1.01,0.0,0.3,1.0,0.0,0.0,0.0,0.0,0.0,0.0,0.0,0.0,0.0,0.0,0.0,0.0,0.0,0.0,0.0,0.0,0.0,0.0,0.0,0.0,0.0,0.0,0.0,0 /
5282, 'GENSAL' ,1,7.0,0.03,0.035,3.0,1.0,1.2,0.8,0.22,0.2,0.16,0.05,0.3 /
5282, 'EXDC1' ,1,0.0,40.0,0.1,0.0,0.0,1.0,-1.0,0.1,0.5,0.05,0.7,0.0,2.8,0.08,3.7,0.33 /
5282, 'WSIEG1' ,1,0,0,25.0,0.0,0.0,0.1,1.0,-10.0,1.01,0.0,0.3,1.0,0.0,0.0,0.0,0.0,0.0,0.0,0.0,0.0,0.0,0.0,0.0,0.0,0.0,0.0,0.0,0.0,0.0,0.0,0.0,0.0,0.0,0.0,0.0,0 /
5283, 'GENSAL' ,1,7.0,0.03,0.035,3.0,1.0,1.2,0.8,0.22,0.2,0.16,0.05,0.3 /
5283, 'EXDC1' ,1,0.0,40.0,0.1,0.0,0.0,1.0,-1.0,0.1,0.5,0.05,0.7,0.0,2.8,0.08,3.7,0.33 /
5283, 'WSIEG1' ,1,0,0,25.0,0.0,0.0,0.1,1.0,-10.0,1.01,0.0,0.3,1.0,0.0,0.0,0.0,0.0,0.0,0.0,0.0,0.0,0.0,0.0,0.0,0.0,0.0,0.0,0.0,0.0,0.0,0.0,0.0,0.0,0.0,0.0,0.0,0 /
5298, 'GENSAL' ,1,7.0,0.03,0.035,3.0,1.0,1.2,0.8,0.22,0.2,0.16,0.05,0.3 /
5298, 'EXDC1' ,1,0.0,40.0,0.1,0.0,0.0,1.0,-1.0,0.1,0.5,0.05,0.7,0.0,2.8,0.08,3.7,0.33 /
5298, 'WSIEG1' ,1,0,0,25.0,0.0,0.0,0.1,1.0,-10.0,1.01,0.0,0.3,1.0,0.0,0.0,0.0,0.0,0.0,0.0,0.0,0.0,0.0,0.0,0.0,0.0,0.0,0.0,0.0,0.0,0.0,0.0,0.0,0.0,0.0,0.0,0.0,0 /
5299, 'GENSAL' ,1,7.0,0.03,0.035,3.0,1.0,1.2,0.8,0.22,0.2,0.16,0.05,0.3 /
5299, 'EXDC1' ,1,0.0,40.0,0.1,0.0,0.0,1.0,-1.0,0.1,0.5,0.05,0.7,0.0,2.8,0.08,3.7,0.33 /
5299, 'WSIEG1' ,1,0,0,25.0,0.0,0.0,0.1,1.0,-10.0,1.01,0.0,0.3,1.0,0.0,0.0,0.0,0.0,0.0,0.0,0.0,0.0,0.0,0.0,0.0,0.0,0.0,0.0,0.0,0.0,0.0,0.0,0.0,0.0,0.0,0.0,0.0,0 /
5300, 'GENSAL' ,1,7.0,0.03,0.035,3.0,1.0,1.2,0.8,0.22,0.2,0.16,0.05,0.3 /
5300, 'EXDC1' ,1,0.0,40.0,0.1,0.0,0.0,1.0,-1.0,0.1,0.5,0.05,0.7,0.0,2.8,0.08,3.7,0.33 /
5300, 'WSIEG1' ,1,0,0,25.0,0.0,0.0,0.1,1.0,-10.0,1.01,0.0,0.3,1.0,0.0,0.0,0.0,0.0,0.0,0.0,0.0,0.0,0.0,0.0,0.0,0.0,0.0,0.0,0.0,0.0,0.0,0.0,0.0,0.0,0.0,0.0,0.0,0 /
5302, 'GENSAL' ,1,7.0,0.03,0.035,3.0,1.0,1.2,0.8,0.22,0.2,0.16,0.05,0.3 /
5302, 'EXDC1' ,1,0.0,40.0,0.1,0.0,0.0,1.0,-1.0,0.1,0.5,0.05,0.7,0.0,2.8,0.08,3.7,0.33 /
5302, 'WSIEG1' ,1,0,0,25.0,0.0,0.0,0.1,1.0,-10.0,1.01,0.0,0.3,1.0,0.0,0.0,0.0,0.0,0.0,0.0,0.0,0.0,0.0,0.0,0.0,0.0,0.0,0.0,0.0,0.0,0.0,0.0,0.0,0.0,0.0,0.0,0.0,0 /
5303, 'GENSAL' ,1,7.0,0.03,0.035,3.0,1.0,1.2,0.8,0.22,0.2,0.16,0.05,0.3 /
5303, 'EXDC1' ,1,0.0,40.0,0.1,0.0,0.0,1.0,-1.0,0.1,0.5,0.05,0.7,0.0,2.8,0.08,3.7,0.33 /
5303, 'WSIEG1' ,1,0,0,25.0,0.0,0.0,0.1,1.0,-10.0,1.01,0.0,0.3,1.0,0.0,0.0,0.0,0.0,0.0,0.0,0.0,0.0,0.0,0.0,0.0,0.0,0.0,0.0,0.0,0.0,0.0,0.0,0.0,0.0,0.0,0.0,0.0,0 /
5319, 'GENSAL' ,1,7.0,0.03,0.035,3.0,1.0,1.2,0.8,0.22,0.2,0.16,0.05,0.3 /
5319, 'EXDC1' ,1,0.0,40.0,0.1,0.0,0.0,1.0,-1.0,0.1,0.5,0.05,0.7,0.0,2.8,0.08,3.7,0.33 /
5319, 'WSIEG1' ,1,0,0,25.0,0.0,0.0,0.1,1.0,-10.0,1.01,0.0,0.3,1.0,0.0,0.0,0.0,0.0,0.0,0.0,0.0,0.0,0.0,0.0,0.0,0.0,0.0,0.0,0.0,0.0,0.0,0.0,0.0,0.0,0.0,0.0,0.0,0 /
5320, 'GENSAL' ,1,7.0,0.03,0.035,3.0,1.0,1.2,0.8,0.22,0.2,0.16,0.05,0.3 /
5320, 'EXDC1' ,1,0.0,40.0,0.1,0.0,0.0,1.0,-1.0,0.1,0.5,0.05,0.7,0.0,2.8,0.08,3.7,0.33 /
5320, 'WSIEG1' ,1,0,0,25.0,0.0,0.0,0.1,1.0,-10.0,1.01,0.0,0.3,1.0,0.0,0.0,0.0,0.0,0.0,0.0,0.0,0.0,0.0,0.0,0.0,0.0,0.0,0.0,0.0,0.0,0.0,0.0,0.0,0.0,0.0,0.0,0.0,0 /
5321, 'GENSAL' ,1,7.0,0.03,0.035,3.0,1.0,1.2,0.8,0.22,0.2,0.16,0.05,0.3 /
5321, 'EXDC1' ,1,0.0,40.0,0.1,0.0,0.0,1.0,-1.0,0.1,0.5,0.05,0.7,0.0,2.8,0.08,3.7,0.33 /
5321, 'WSIEG1' ,1,0,0,25.0,0.0,0.0,0.1,1.0,-10.0,1.01,0.0,0.3,1.0,0.0,0.0,0.0,0.0,0.0,0.0,0.0,0.0,0.0,0.0,0.0,0.0,0.0,0.0,0.0,0.0,0.0,0.0,0.0,0.0,0.0,0.0,0.0,0 /
5324, 'GENSAL' ,1,7.0,0.03,0.035,3.0,1.0,1.2,0.8,0.22,0.2,0.16,0.05,0.3 /
5324, 'EXDC1' ,1,0.0,40.0,0.1,0.0,0.0,1.0,-1.0,0.1,0.5,0.05,0.7,0.0,2.8,0.08,3.7,0.33 /
5324, 'WSIEG1' ,1,0,0,25.0,0.0,0.0,0.1,1.0,-10.0,1.01,0.0,0.3,1.0,0.0,0.0,0.0,0.0,0.0,0.0,0.0,0.0,0.0,0.0,0.0,0.0,0.0,0.0,0.0,0.0,0.0,0.0,0.0,0.0,0.0,0.0,0.0,0 /
5325, 'GENSAL' ,1,7.0,0.03,0.035,3.0,1.0,1.2,0.8,0.22,0.2,0.16,0.05,0.3 /
5325, 'EXDC1' ,1,0.0,40.0,0.1,0.0,0.0,1.0,-1.0,0.1,0.5,0.05,0.7,0.0,2.8,0.08,3.7,0.33 /
5325, 'WSIEG1' ,1,0,0,25.0,0.0,0.0,0.1,1.0,-10.0,1.01,0.0,0.3,1.0,0.0,0.0,0.0,0.0,0.0,0.0,0.0,0.0,0.0,0.0,0.0,0.0,0.0,0.0,0.0,0.0,0.0,0.0,0.0,0.0,0.0,0.0,0.0,0 /
5326, 'GENSAL' ,1,7.0,0.03,0.035,3.0,1.0,1.2,0.8,0.22,0.2,0.16,0.05,0.3 /
5326, 'EXDC1' ,1,0.0,40.0,0.1,0.0,0.0,1.0,-1.0,0.1,0.5,0.05,0.7,0.0,2.8,0.08,3.7,0.33 /
5326, 'WSIEG1' ,1,0,0,25.0,0.0,0.0,0.1,1.0,-10.0,1.01,0.0,0.3,1.0,0.0,0.0,0.0,0.0,0.0,0.0,0.0,0.0,0.0,0.0,0.0,0.0,0.0,0.0,0.0,0.0,0.0,0.0,0.0,0.0,0.0,0.0,0.0,0 /
5343, 'GENSAL' ,1,7.0,0.03,0.035,3.0,1.0,1.2,0.8,0.22,0.2,0.16,0.05,0.3 /
5343, 'EXDC1' ,1,0.0,40.0,0.1,0.0,0.0,1.0,-1.0,0.1,0.5,0.05,0.7,0.0,2.8,0.08,3.7,0.33 /
5343, 'WSIEG1' ,1,0,0,25.0,0.0,0.0,0.1,1.0,-10.0,1.01,0.0,0.3,1.0,0.0,0.0,0.0,0.0,0.0,0.0,0.0,0.0,0.0,0.0,0.0,0.0,0.0,0.0,0.0,0.0,0.0,0.0,0.0,0.0,0.0,0.0,0.0,0 /
5360, 'GENSAL' ,1,7.0,0.03,0.035,3.0,1.0,1.2,0.8,0.22,0.2,0.16,0.05,0.3 /
5360, 'EXDC1' ,1,0.0,40.0,0.1,0.0,0.0,1.0,-1.0,0.1,0.5,0.05,0.7,0.0,2.8,0.08,3.7,0.33 /
5360, 'WSIEG1' ,1,0,0,25.0,0.0,0.0,0.1,1.0,-10.0,1.01,0.0,0.3,1.0,0.0,0.0,0.0,0.0,0.0,0.0,0.0,0.0,0.0,0.0,0.0,0.0,0.0,0.0,0.0,0.0,0.0,0.0,0.0,0.0,0.0,0.0,0.0,0 /
5364, 'GENSAL' ,1,7.0,0.03,0.035,3.0,1.0,1.2,0.8,0.22,0.2,0.16,0.05,0.3 /
5364, 'EXDC1' ,1,0.0,40.0,0.1,0.0,0.0,1.0,-1.0,0.1,0.5,0.05,0.7,0.0,2.8,0.08,3.7,0.33 /
5364, 'WSIEG1' ,1,0,0,25.0,0.0,0.0,0.1,1.0,-10.0,1.01,0.0,0.3,1.0,0.0,0.0,0.0,0.0,0.0,0.0,0.0,0.0,0.0,0.0,0.0,0.0,0.0,0.0,0.0,0.0,0.0,0.0,0.0,0.0,0.0,0.0,0.0,0 /
5365, 'GENSAL' ,1,7.0,0.03,0.035,3.0,1.0,1.2,0.8,0.22,0.2,0.16,0.05,0.3 /
5365, 'EXDC1' ,1,0.0,40.0,0.1,0.0,0.0,1.0,-1.0,0.1,0.5,0.05,0.7,0.0,2.8,0.08,3.7,0.33 /
5365, 'WSIEG1' ,1,0,0,25.0,0.0,0.0,0.1,1.0,-10.0,1.01,0.0,0.3,1.0,0.0,0.0,0.0,0.0,0.0,0.0,0.0,0.0,0.0,0.0,0.0,0.0,0.0,0.0,0.0,0.0,0.0,0.0,0.0,0.0,0.0,0.0,0.0,0 /
5366, 'GENSAL' ,1,7.0,0.03,0.035,3.0,1.0,1.2,0.8,0.22,0.2,0.16,0.05,0.3 /
5366, 'EXDC1' ,1,0.0,40.0,0.1,0.0,0.0,1.0,-1.0,0.1,0.5,0.05,0.7,0.0,2.8,0.08,3.7,0.33 /