// Generators 
30, 'GENROU', '1',10.2,0.038,0.05,0.029,8.75,0,0.48,0.3312,0.1488,0.144,0.096,0.06,0,0/
31, 'GENROU', '1',6.59,0.049,1.5,0.14,4.967213115,0,1.7995,1.7202,0.42517,1.037,0.24888,0.2135,0,0/
32, 'GENROU', '1',5.7,0.032,1.5,0.032,4.972222222,0,1.7964,1.7064,0.38232,0.63072,0.27,0.21888,0,0/
33, 'GENROU', '1',5.67,0.041,1.5,0.213,4.205882353,0,1.7816,1.7544,0.29648,1.1288,0.25432,0.2006,0,0/
34, 'GENROU', '1',5.4,0.035,0.44,0.44,4.814814815,0,3.618,3.348,0.7128,0.8964,0.459,0.2916,0,0/
35, 'GENROU', '1',7.3,0.032,0.4,0.055,4.833333333,0,1.8288,1.7352,0.36,0.58608,0.24408,0.16128,0,0/
36, 'GENROU', '1',5.66,0.014,1.5,0.207,4.327868852,0,1.7995,1.7812,0.2989,1.1346,0.24705,0.19642,0,0/
37, 'GENROU', '1',6.7,0.035,0.41,0.058,4.05,0,1.74,1.68,0.342,0.5466,0.2154,0.168,0,0/
38, 'GENROU', '1',4.79,0.04,1.96,0.04,3.876404494,0,1.87434,1.8245,0.5073,0.52243,0.3382,0.26522,0,0/
39, 'GENROU', '1',7.0,0.05,0.7,0.09,5,0,2,1.9,0.6,0.8,0.4,0.3,0,0/

// Exciters 
30, 'IEEET1', '1', 0,5.0,0.06,10.0,-10,-0.0485,0.25,0.04,1.0,0,3.5460992907801416,0.08,4.7281323877068555,0.26  /
31, 'IEEET1', '1', 0,6.2,0.05,10.0,-10,-0.633,0.405,0.057,0.5,0,3.0364372469635628,0.66,4.048582995951417,0.88  /
32, 'IEEET1', '1', 0,5.0,0.06,10.0,-10,-0.0198,0.5,0.08,1.0,0,2.3422860712054963,0.13,3.123048094940662,0.34  /
33, 'IEEET1', '1', 0,5.0,0.06,10.0,-10,-0.0525,0.5,0.08,1.0,0,2.8680688336520075,0.08,3.8240917782026767,0.314  /
34, 'IEEET1', '1', 0,40.0,0.02,100.0,-100,1.0,0.785,0.03,1.0,0,2.8664921465968582,0.67,3.821989528795811,0.91  /
35, 'IEEET1', '1', 0,5.0,0.02,10.0,-10,-0.0419,0.471,0.0754,1.246,0,3.586800573888092,0.064,4.782400765184122,0.251  /
36, 'IEEET1', '1', 0,40.0,0.02,65,-65,1.0,0.73,0.03,1.0,0,2.8017241379310347,0.53,3.735632183908046,0.74  /
37, 'IEEET1', '1', 0,5.0,0.02,10.0,-10,-0.047,0.528,0.0845,1.26,0,3.1914893617021276,0.072,4.25531914893617,0.282  /
38, 'IEEET1', '1', 0,40.0,0.02,105,-105,1.0,1.4,0.03,1.0,0,4.144736842105263,0.6,5.526315789473684,0.9  /
39, 'IEEET1', '1', 500,1,500.0,100,-100,1.0,500.0,0.0,500.0,0,3.75,0.0,5.0,1.0  /

// Governors
30, 'TGOV1', '1', 0.089338,0.55,1.2,0,13.25,54.0,1.598361 /
31, 'TGOV1', '1', 0.089338,0.55,1.2,0,13.25,54.0,1.598361 /
32, 'TGOV1', '1', 0.191571,3.000000,1.200000,0.000000,0.000000,5.000000,1.388880 /
33, 'TGOV1', '1', 0.073899,0.42,1.2,0.0,2.02,10.0,1.470588 /
34, 'TGOV1', '1', 0.072338,0.275,1.2,0.0,4.5,9.65,0.5555 /
35, 'TGOV1', '1', 0.063710,3.000000,1.200000,0.000000,0.000000,50.000000,1.388880 /
36, 'TGOV1', '1', 0.084069,0.38,1.2,0.0,3.75,7.5,1.311475 /
37, 'TGOV1', '1', 0.093110,3.000000,1.200000,0.000000,0.000000,3.000000,1.500000 /
38, 'TGOV1', '1', 0.04071,0.48,1.2,0.0,1.68,6.0,1.573034 /
39, 'TGOV1', '1', 10.000000,100.000000,2000.000000,-999.000000,0.000000,100.000000,0.100000 /
