1, 'GENCLS',1 , 518.000000, 518.100000 /
2, 'GENCLS',1 , 518.000000, 518.100000 /
3, 'GENCLS',1 , 518.000000, 518.100000 /
4, 'GENCLS',1 , 518.000000, 518.100000 /