      1 'GENROU' 1     8.0000      0.30000E-01  0.40000      0.50000E-01
          6.5000       0.0000      1.80000      1.70000  	 0.30000
         0.55000  	   0.2500      0.20000      0.0000       0.0000      /
      1 'SEXS'   1     0.1000       10.000       200.00      0.00000
          0.0000       3.0000      /
      1 'TGOV1'  1     0.0400      2.0000       1.0000       0.0000
          3.0000       15.000      0.40000      /
      2 'GENROU' 1     8.0000      0.30000E-01  0.40000      0.50000E-01
          6.5000       0.0000      1.80000      1.70000  	 0.30000
         0.55000  	   0.2500      0.20000      0.0000       0.0000      /
      2 'SEXS'   1     0.1000       10.000       200.00      0.00000
          0.0000       3.0000      /
      2 'TGOV1'  1     0.0400      2.0000       1.0000       0.0000
          3.0000       15.000      0.40000      /
      3 'GENROU' 1     8.0000      0.30000E-01  0.40000      0.50000E-01
          6.1750       0.0000      1.80000      1.70000  	 0.30000
         0.55000  	   0.2500      0.20000      0.0000       0.0000      /
      3 'SEXS'   1     0.1000       10.000       200.00      0.00000
          0.0000       3.0000      /
      3 'TGOV1'  1     0.0400      2.0000       1.0000       0.0000
          3.0000       15.000      0.40000      /
      4 'GENROU' 1     8.0000      0.30000E-01  0.40000      0.50000E-01
          6.1750       0.0000      1.80000      1.70000  	 0.30000
         0.55000  	   0.2500      0.20000      0.0000       0.0000      /
      4 'SEXS'   1     0.1000       10.000       200.00      0.00000
          0.0000       3.0000      /
      4 'TGOV1'  1     0.0400      2.0000       1.0000       0.0000
          3.0000       15.000      0.40000      /
