30, 'GENSAL', 1,   8.00000,     0.300000E-01, 0.500000E-01,  6.50000,    0.00000,      1.80000,      1.70000,     0.30000,     0.250000,     0.20000,     0.170000,     0.550000     /
31, 'GENSAL', 1,   8.00000,     0.300000E-01, 0.500000E-01,  6.50000,    0.00000,      1.80000,      1.70000,     0.30000,     0.250000,     0.20000,     0.170000,     0.550000     /
32, 'GENSAL', 1,   8.00000,     0.300000E-01, 0.500000E-01,  6.50000,    0.00000,      1.80000,      1.70000,     0.30000,     0.250000,     0.20000,     0.170000,     0.550000     /
33, 'GENSAL', 1,   8.00000,     0.300000E-01, 0.500000E-01,  6.50000,    0.00000,      1.80000,      1.70000,     0.30000,     0.250000,     0.20000,     0.170000,     0.550000     /
34, 'GENSAL', 1,   8.00000,     0.300000E-01, 0.500000E-01,  6.50000,    0.00000,      1.80000,      1.70000,     0.30000,     0.250000,     0.20000,     0.170000,     0.550000     /
34, 'ESST1A', 1,  1, 1, 0.0,  999.000,     -999.000,     0.510000,      2.01000,      0.00000,      0.00000,      178.900, 0.290000E-01,  999.000,     -999.000,      4.48000,     -1.79000,     0.110000,      0.00000,      1.00000,      0.00000,      2.80000    / 
34, 'PSSSIM', 1, 1, 34, 30, 5, 6, 7, 8, 100.0, 20.0, 0.06, 0.04, 0.08, 0.04, 1.0, -1.0  /
35, 'GENSAL', 1,   8.00000,     0.300000E-01, 0.500000E-01,  6.50000,    0.00000,      1.80000,      1.70000,     0.30000,     0.250000,     0.20000,     0.170000,     0.550000     /
36, 'GENSAL', 1,   8.00000,     0.300000E-01, 0.500000E-01,  6.50000,    0.00000,      1.80000,      1.70000,     0.30000,     0.250000,     0.20000,     0.170000,     0.550000     /
37, 'GENSAL', 1,   8.00000,     0.300000E-01, 0.500000E-01,  6.50000,    0.00000,      1.80000,      1.70000,     0.30000,     0.250000,     0.20000,     0.170000,     0.550000     /
38, 'GENSAL', 1,   8.00000,     0.300000E-01, 0.500000E-01,  6.50000,    0.00000,      1.80000,      1.70000,     0.30000,     0.250000,     0.20000,     0.170000,     0.550000     /
39, 'GENSAL', 1,   8.00000,     0.300000E-01, 0.500000E-01,  6.50000,    0.00000,      1.80000,      1.70000,     0.30000,     0.250000,     0.20000,     0.170000,     0.550000     /