10003, 'GENSAL', 1,   6.00000,     0.350000E-01, 0.350000E-01,  10.00000,    3.00000,      1.40000,      1.00000,     0.210000,     0.180000,     0.120000,     0.170000,     0.550000     /
10003, 'ESST1A', 1,  1, 1, 0.0,  999.000,     -999.000,     0.510000,      2.01000,      0.00000,      0.00000,      178.900, 0.290000E-01,  999.000,     -999.000,      4.48000,     -1.79000,     0.110000,      0.00000,      1.00000,      0.00000,      2.80000    / 
10003, 'WSIEG1', 1 ,      0, 0 ,  25.0000 ,     0.00000 ,     3.30000 ,    0.300000 ,    0.250000 ,    -3.30000  ,    1.01000 ,     0.00000 ,    0.861200E-01 , 1.00000, 
0.00000 ,     0.00000  ,    0.00000   ,   0.00000  ,    0.00000 ,     0.00000  ,    0.00000  ,    0.00000   ,   0.00000  ,    0.00000  ,  
0.00000 ,     0.00000  ,    0.00000   ,   0.00000  ,    0.00000 ,     0.00000  ,   0.00000  ,    0.00000   ,   0.00000  ,    0.00000  ,  
0.00000 ,     0.00000  ,    0.00000  ,   0 / 

10004, 'GENSAL', 1,   6.00000,     0.350000E-01, 0.350000E-01,  10.00000,    3.00000,      1.40000,      1.00000,     0.210000,     0.180000,     0.120000,     0.170000,     0.550000     /
10004, 'ESST1A', 1,  1, 1, 0.0,  999.000,     -999.000,     0.510000,      2.01000,      0.00000,      0.00000,      178.900, 0.290000E-01,  999.000,     -999.000,      4.48000,     -1.79000,     0.110000,      0.00000,      1.00000,      0.00000,      2.80000    / 
10004, 'WSIEG1', 1 ,      0, 0 ,  25.0000 ,     0.00000 ,     3.30000 ,    0.300000 ,    0.250000 ,    -3.30000  ,    1.01000 ,     0.00000 ,    0.861200E-01 , 1.00000, 
0.00000 ,     0.00000  ,    0.00000   ,   0.00000  ,    0.00000 ,     0.00000  ,    0.00000  ,    0.00000   ,   0.00000  ,    0.00000  ,  
0.00000 ,     0.00000  ,    0.00000   ,   0.00000  ,    0.00000 ,     0.00000  ,   0.00000  ,    0.00000   ,   0.00000  ,    0.00000  ,  
0.00000 ,     0.00000  ,    0.00000  ,   0 / 

10012, 'GENSAL', 1,   6.00000,     0.350000E-01, 0.350000E-01,  10.00000,    3.00000,      1.40000,      1.00000,     0.210000,     0.180000,     0.120000,     0.170000,     0.550000     /
10012, 'ESST1A', 1,  1, 1, 0.0,  999.000,     -999.000,     0.510000,      2.01000,      0.00000,      0.00000,      178.900, 0.290000E-01,  999.000,     -999.000,      4.48000,     -1.79000,     0.110000,      0.00000,      1.00000,      0.00000,      2.80000    / 
10012, 'WSIEG1', 1 ,      0, 0 ,  25.0000 ,     0.00000 ,     3.30000 ,    0.300000 ,    0.250000 ,    -3.30000  ,    1.01000 ,     0.00000 ,    0.861200E-01 , 1.00000, 
0.00000 ,     0.00000  ,    0.00000   ,   0.00000  ,    0.00000 ,     0.00000  ,    0.00000  ,    0.00000   ,   0.00000  ,    0.00000  ,  
0.00000 ,     0.00000  ,    0.00000   ,   0.00000  ,    0.00000 ,     0.00000  ,   0.00000  ,    0.00000   ,   0.00000  ,    0.00000  ,  
0.00000 ,     0.00000  ,    0.00000  ,   0 / 

10021, 'GENSAL', 1,   6.00000,     0.350000E-01, 0.350000E-01,  10.00000,    3.00000,      1.40000,      1.00000,     0.210000,     0.180000,     0.120000,     0.170000,     0.550000     /
10021, 'ESST1A', 1,  1, 1, 0.0,  999.000,     -999.000,     0.510000,      2.01000,      0.00000,      0.00000,      178.900, 0.290000E-01,  999.000,     -999.000,      4.48000,     -1.79000,     0.110000,      0.00000,      1.00000,      0.00000,      2.80000    / 
10021, 'WSIEG1', 1 ,      0, 0 ,  25.0000 ,     0.00000 ,     3.30000 ,    0.300000 ,    0.250000 ,    -3.30000  ,    1.01000 ,     0.00000 ,    0.861200E-01 , 1.00000, 
0.00000 ,     0.00000  ,    0.00000   ,   0.00000  ,    0.00000 ,     0.00000  ,    0.00000  ,    0.00000   ,   0.00000  ,    0.00000  ,  
0.00000 ,     0.00000  ,    0.00000   ,   0.00000  ,    0.00000 ,     0.00000  ,   0.00000  ,    0.00000   ,   0.00000  ,    0.00000  ,  
0.00000 ,     0.00000  ,    0.00000  ,   0 / 

10023, 'GENSAL', 1,   6.00000,     0.350000E-01, 0.350000E-01,  10.00000,    3.00000,      1.40000,      1.00000,     0.210000,     0.180000,     0.120000,     0.170000,     0.550000     /
10023, 'ESST1A', 1,  1, 1, 0.0,  999.000,     -999.000,     0.510000,      2.01000,      0.00000,      0.00000,      178.900, 0.290000E-01,  999.000,     -999.000,      4.48000,     -1.79000,     0.110000,      0.00000,      1.00000,      0.00000,      2.80000    / 
10023, 'WSIEG1', 1 ,      0, 0 ,  25.0000 ,     0.00000 ,     3.30000 ,    0.300000 ,    0.250000 ,    -3.30000  ,    1.01000 ,     0.00000 ,    0.861200E-01 , 1.00000, 
0.00000 ,     0.00000  ,    0.00000   ,   0.00000  ,    0.00000 ,     0.00000  ,    0.00000  ,    0.00000   ,   0.00000  ,    0.00000  ,  
0.00000 ,     0.00000  ,    0.00000   ,   0.00000  ,    0.00000 ,     0.00000  ,   0.00000  ,    0.00000   ,   0.00000  ,    0.00000  ,  
0.00000 ,     0.00000  ,    0.00000  ,   0 / 

10068, 'GENSAL', 1,   6.00000,     0.350000E-01, 0.350000E-01,  10.00000,    3.00000,      1.40000,      1.00000,     0.210000,     0.180000,     0.120000,     0.170000,     0.550000     /
10068, 'ESST1A', 1,  1, 1, 0.0,  999.000,     -999.000,     0.510000,      2.01000,      0.00000,      0.00000,      178.900, 0.290000E-01,  999.000,     -999.000,      4.48000,     -1.79000,     0.110000,      0.00000,      1.00000,      0.00000,      2.80000    / 
10068, 'WSIEG1', 1 ,      0, 0 ,  25.0000 ,     0.00000 ,     3.30000 ,    0.300000 ,    0.250000 ,    -3.30000  ,    1.01000 ,     0.00000 ,    0.861200E-01 , 1.00000, 
0.00000 ,     0.00000  ,    0.00000   ,   0.00000  ,    0.00000 ,     0.00000  ,    0.00000  ,    0.00000   ,   0.00000  ,    0.00000  ,  
0.00000 ,     0.00000  ,    0.00000   ,   0.00000  ,    0.00000 ,     0.00000  ,   0.00000  ,    0.00000   ,   0.00000  ,    0.00000  ,  
0.00000 ,     0.00000  ,    0.00000  ,   0 / 

10054, 'GENSAL', 1,   6.00000,     0.350000E-01, 0.350000E-01,  10.00000,    3.00000,      1.40000,      1.00000,     0.210000,     0.180000,     0.120000,     0.170000,     0.550000     /
10054, 'ESST1A', 1,  1, 1, 0.0,  999.000,     -999.000,     0.510000,      2.01000,      0.00000,      0.00000,      178.900, 0.290000E-01,  999.000,     -999.000,      4.48000,     -1.79000,     0.110000,      0.00000,      1.00000,      0.00000,      2.80000    / 
10054, 'WSIEG1', 1 ,      0, 0 ,  25.0000 ,     0.00000 ,     3.30000 ,    0.300000 ,    0.250000 ,    -3.30000  ,    1.01000 ,     0.00000 ,    0.861200E-01 , 1.00000, 
0.00000 ,     0.00000  ,    0.00000   ,   0.00000  ,    0.00000 ,     0.00000  ,    0.00000  ,    0.00000   ,   0.00000  ,    0.00000  ,  
0.00000 ,     0.00000  ,    0.00000   ,   0.00000  ,    0.00000 ,     0.00000  ,   0.00000  ,    0.00000   ,   0.00000  ,    0.00000  ,  
0.00000 ,     0.00000  ,    0.00000  ,   0 / 

10056, 'GENSAL', 1,   6.00000,     0.350000E-01, 0.350000E-01,  10.00000,    3.00000,      1.40000,      1.00000,     0.210000,     0.180000,     0.120000,     0.170000,     0.550000     /
10056, 'ESST1A', 1,  1, 1, 0.0,  999.000,     -999.000,     0.510000,      2.01000,      0.00000,      0.00000,      178.900, 0.290000E-01,  999.000,     -999.000,      4.48000,     -1.79000,     0.110000,      0.00000,      1.00000,      0.00000,      2.80000    / 
10056, 'WSIEG1', 1 ,      0, 0 ,  25.0000 ,     0.00000 ,     3.30000 ,    0.300000 ,    0.250000 ,    -3.30000  ,    1.01000 ,     0.00000 ,    0.861200E-01 , 1.00000, 
0.00000 ,     0.00000  ,    0.00000   ,   0.00000  ,    0.00000 ,     0.00000  ,    0.00000  ,    0.00000   ,   0.00000  ,    0.00000  ,  
0.00000 ,     0.00000  ,    0.00000   ,   0.00000  ,    0.00000 ,     0.00000  ,   0.00000  ,    0.00000   ,   0.00000  ,    0.00000  ,  
0.00000 ,     0.00000  ,    0.00000  ,   0 / 

10067, 'GENSAL', 1,   6.00000,     0.350000E-01, 0.350000E-01,  10.00000,    3.00000,      1.40000,      1.00000,     0.210000,     0.180000,     0.120000,     0.170000,     0.550000     /
10067, 'ESST1A', 1,  1, 1, 0.0,  999.000,     -999.000,     0.510000,      2.01000,      0.00000,      0.00000,      178.900, 0.290000E-01,  999.000,     -999.000,      4.48000,     -1.79000,     0.110000,      0.00000,      1.00000,      0.00000,      2.80000    / 
10067, 'WSIEG1', 1 ,      0, 0 ,  25.0000 ,     0.00000 ,     3.30000 ,    0.300000 ,    0.250000 ,    -3.30000  ,    1.01000 ,     0.00000 ,    0.861200E-01 , 1.00000, 
0.00000 ,     0.00000  ,    0.00000   ,   0.00000  ,    0.00000 ,     0.00000  ,    0.00000  ,    0.00000   ,   0.00000  ,    0.00000  ,  
0.00000 ,     0.00000  ,    0.00000   ,   0.00000  ,    0.00000 ,     0.00000  ,   0.00000  ,    0.00000   ,   0.00000  ,    0.00000  ,  
0.00000 ,     0.00000  ,    0.00000  ,   0 / 

10008, 'GENSAL', 1,   6.00000,     0.350000E-01, 0.350000E-01,  10.00000,    3.00000,      1.40000,      1.00000,     0.210000,     0.180000,     0.120000,     0.170000,     0.550000     /
10008, 'ESST1A', 1,  1, 1, 0.0,  999.000,     -999.000,     0.510000,      2.01000,      0.00000,      0.00000,      178.900, 0.290000E-01,  999.000,     -999.000,      4.48000,     -1.79000,     0.110000,      0.00000,      1.00000,      0.00000,      2.80000    / 
10008, 'WSIEG1', 1 ,      0, 0 ,  25.0000 ,     0.00000 ,     3.30000 ,    0.300000 ,    0.250000 ,    -3.30000  ,    1.01000 ,     0.00000 ,    0.861200E-01 , 1.00000, 
0.00000 ,     0.00000  ,    0.00000   ,   0.00000  ,    0.00000 ,     0.00000  ,    0.00000  ,    0.00000   ,   0.00000  ,    0.00000  ,  
0.00000 ,     0.00000  ,    0.00000   ,   0.00000  ,    0.00000 ,     0.00000  ,   0.00000  ,    0.00000   ,   0.00000  ,    0.00000  ,  
0.00000 ,     0.00000  ,    0.00000  ,   0 / 

10016, 'GENSAL', 1,   6.00000,     0.350000E-01, 0.350000E-01,  10.00000,    3.00000,      1.40000,      1.00000,     0.210000,     0.180000,     0.120000,     0.170000,     0.550000     /
10016, 'ESST1A', 1,  1, 1, 0.0,  999.000,     -999.000,     0.510000,      2.01000,      0.00000,      0.00000,      178.900, 0.290000E-01,  999.000,     -999.000,      4.48000,     -1.79000,     0.110000,      0.00000,      1.00000,      0.00000,      2.80000    / 
10016, 'WSIEG1', 1 ,      0, 0 ,  25.0000 ,     0.00000 ,     3.30000 ,    0.300000 ,    0.250000 ,    -3.30000  ,    1.01000 ,     0.00000 ,    0.861200E-01 , 1.00000, 
0.00000 ,     0.00000  ,    0.00000   ,   0.00000  ,    0.00000 ,     0.00000  ,    0.00000  ,    0.00000   ,   0.00000  ,    0.00000  ,  
0.00000 ,     0.00000  ,    0.00000   ,   0.00000  ,    0.00000 ,     0.00000  ,   0.00000  ,    0.00000   ,   0.00000  ,    0.00000  ,  
0.00000 ,     0.00000  ,    0.00000  ,   0 / 

10025, 'GENSAL', 1,   6.00000,     0.350000E-01, 0.350000E-01,  10.00000,    3.00000,      1.40000,      1.00000,     0.210000,     0.180000,     0.120000,     0.170000,     0.550000     /
10025, 'ESST1A', 1,  1, 1, 0.0,  999.000,     -999.000,     0.510000,      2.01000,      0.00000,      0.00000,      178.900, 0.290000E-01,  999.000,     -999.000,      4.48000,     -1.79000,     0.110000,      0.00000,      1.00000,      0.00000,      2.80000    / 
10025, 'WSIEG1', 1 ,      0, 0 ,  25.0000 ,     0.00000 ,     3.30000 ,    0.300000 ,    0.250000 ,    -3.30000  ,    1.01000 ,     0.00000 ,    0.861200E-01 , 1.00000, 
0.00000 ,     0.00000  ,    0.00000   ,   0.00000  ,    0.00000 ,     0.00000  ,    0.00000  ,    0.00000   ,   0.00000  ,    0.00000  ,  
0.00000 ,     0.00000  ,    0.00000   ,   0.00000  ,    0.00000 ,     0.00000  ,   0.00000  ,    0.00000   ,   0.00000  ,    0.00000  ,  
0.00000 ,     0.00000  ,    0.00000  ,   0 / 

10044, 'GENSAL', 1,   6.00000,     0.350000E-01, 0.350000E-01,  10.00000,    3.00000,      1.40000,      1.00000,     0.210000,     0.180000,     0.120000,     0.170000,     0.550000     /
10044, 'ESST1A', 1,  1, 1, 0.0,  999.000,     -999.000,     0.510000,      2.01000,      0.00000,      0.00000,      178.900, 0.290000E-01,  999.000,     -999.000,      4.48000,     -1.79000,     0.110000,      0.00000,      1.00000,      0.00000,      2.80000    / 
10044, 'WSIEG1', 1 ,      0, 0 ,  25.0000 ,     0.00000 ,     3.30000 ,    0.300000 ,    0.250000 ,    -3.30000  ,    1.01000 ,     0.00000 ,    0.861200E-01 , 1.00000, 
0.00000 ,     0.00000  ,    0.00000   ,   0.00000  ,    0.00000 ,     0.00000  ,    0.00000  ,    0.00000   ,   0.00000  ,    0.00000  ,  
0.00000 ,     0.00000  ,    0.00000   ,   0.00000  ,    0.00000 ,     0.00000  ,   0.00000  ,    0.00000   ,   0.00000  ,    0.00000  ,  
0.00000 ,     0.00000  ,    0.00000  ,   0 / 

10033, 'GENSAL', 1,   6.00000,     0.350000E-01, 0.350000E-01,  10.00000,    3.00000,      1.40000,      1.00000,     0.210000,     0.180000,     0.120000,     0.170000,     0.550000     /
10033, 'ESST1A', 1,  1, 1, 0.0,  999.000,     -999.000,     0.510000,      2.01000,      0.00000,      0.00000,      178.900, 0.290000E-01,  999.000,     -999.000,      4.48000,     -1.79000,     0.110000,      0.00000,      1.00000,      0.00000,      2.80000    / 
10033, 'WSIEG1', 1 ,      0, 0 ,  25.0000 ,     0.00000 ,     3.30000 ,    0.300000 ,    0.250000 ,    -3.30000  ,    1.01000 ,     0.00000 ,    0.861200E-01 , 1.00000, 
0.00000 ,     0.00000  ,    0.00000   ,   0.00000  ,    0.00000 ,     0.00000  ,    0.00000  ,    0.00000   ,   0.00000  ,    0.00000  ,  
0.00000 ,     0.00000  ,    0.00000   ,   0.00000  ,    0.00000 ,     0.00000  ,   0.00000  ,    0.00000   ,   0.00000  ,    0.00000  ,  
0.00000 ,     0.00000  ,    0.00000  ,   0 / 

10018, 'GENSAL', 1,   6.00000,     0.350000E-01, 0.350000E-01,  10.00000,    3.00000,      1.40000,      1.00000,     0.210000,     0.180000,     0.120000,     0.170000,     0.550000     /
10018, 'ESST1A', 1,  1, 1, 0.0,  999.000,     -999.000,     0.510000,      2.01000,      0.00000,      0.00000,      178.900, 0.290000E-01,  999.000,     -999.000,      4.48000,     -1.79000,     0.110000,      0.00000,      1.00000,      0.00000,      2.80000    / 
10018, 'WSIEG1', 1 ,      0, 0 ,  25.0000 ,     0.00000 ,     3.30000 ,    0.300000 ,    0.250000 ,    -3.30000  ,    1.01000 ,     0.00000 ,    0.861200E-01 , 1.00000, 
0.00000 ,     0.00000  ,    0.00000   ,   0.00000  ,    0.00000 ,     0.00000  ,    0.00000  ,    0.00000   ,   0.00000  ,    0.00000  ,  
0.00000 ,     0.00000  ,    0.00000   ,   0.00000  ,    0.00000 ,     0.00000  ,   0.00000  ,    0.00000   ,   0.00000  ,    0.00000  ,  
0.00000 ,     0.00000  ,    0.00000  ,   0 / 

10060, 'GENSAL', 1,   6.00000,     0.350000E-01, 0.350000E-01,  10.00000,    3.00000,      1.40000,      1.00000,     0.210000,     0.180000,     0.120000,     0.170000,     0.550000     /
10060, 'ESST1A', 1,  1, 1, 0.0,  999.000,     -999.000,     0.510000,      2.01000,      0.00000,      0.00000,      178.900, 0.290000E-01,  999.000,     -999.000,      4.48000,     -1.79000,     0.110000,      0.00000,      1.00000,      0.00000,      2.80000    / 
10060, 'WSIEG1', 1 ,      0, 0 ,  25.0000 ,     0.00000 ,     3.30000 ,    0.300000 ,    0.250000 ,    -3.30000  ,    1.01000 ,     0.00000 ,    0.861200E-01 , 1.00000, 
0.00000 ,     0.00000  ,    0.00000   ,   0.00000  ,    0.00000 ,     0.00000  ,    0.00000  ,    0.00000   ,   0.00000  ,    0.00000  ,  
0.00000 ,     0.00000  ,    0.00000   ,   0.00000  ,    0.00000 ,     0.00000  ,   0.00000  ,    0.00000   ,   0.00000  ,    0.00000  ,  
0.00000 ,     0.00000  ,    0.00000  ,   0 / 

10009, 'GENSAL', 1,   6.00000,     0.350000E-01, 0.350000E-01,  10.00000,    3.00000,      1.40000,      1.00000,     0.210000,     0.180000,     0.120000,     0.170000,     0.550000     /
10009, 'ESST1A', 1,  1, 1, 0.0,  999.000,     -999.000,     0.510000,      2.01000,      0.00000,      0.00000,      178.900, 0.290000E-01,  999.000,     -999.000,      4.48000,     -1.79000,     0.110000,      0.00000,      1.00000,      0.00000,      2.80000    / 
10009, 'WSIEG1', 1 ,      0, 0 ,  25.0000 ,     0.00000 ,     3.30000 ,    0.300000 ,    0.250000 ,    -3.30000  ,    1.01000 ,     0.00000 ,    0.861200E-01 , 1.00000, 
0.00000 ,     0.00000  ,    0.00000   ,   0.00000  ,    0.00000 ,     0.00000  ,    0.00000  ,    0.00000   ,   0.00000  ,    0.00000  ,  
0.00000 ,     0.00000  ,    0.00000   ,   0.00000  ,    0.00000 ,     0.00000  ,   0.00000  ,    0.00000   ,   0.00000  ,    0.00000  ,  
0.00000 ,     0.00000  ,    0.00000  ,   0 / 

10006, 'GENSAL', 1,   6.00000,     0.350000E-01, 0.350000E-01,  10.00000,    3.00000,      1.40000,      1.00000,     0.210000,     0.180000,     0.120000,     0.170000,     0.550000     /
10006, 'ESST1A', 1,  1, 1, 0.0,  999.000,     -999.000,     0.510000,      2.01000,      0.00000,      0.00000,      178.900, 0.290000E-01,  999.000,     -999.000,      4.48000,     -1.79000,     0.110000,      0.00000,      1.00000,      0.00000,      2.80000    / 
10006, 'WSIEG1', 1 ,      0, 0 ,  25.0000 ,     0.00000 ,     3.30000 ,    0.300000 ,    0.250000 ,    -3.30000  ,    1.01000 ,     0.00000 ,    0.861200E-01 , 1.00000, 
0.00000 ,     0.00000  ,    0.00000   ,   0.00000  ,    0.00000 ,     0.00000  ,    0.00000  ,    0.00000   ,   0.00000  ,    0.00000  ,  
0.00000 ,     0.00000  ,    0.00000   ,   0.00000  ,    0.00000 ,     0.00000  ,   0.00000  ,    0.00000   ,   0.00000  ,    0.00000  ,  
0.00000 ,     0.00000  ,    0.00000  ,   0 / 

10057, 'GENSAL', 1,   6.00000,     0.350000E-01, 0.350000E-01,  10.00000,    3.00000,      1.40000,      1.00000,     0.210000,     0.180000,     0.120000,     0.170000,     0.550000     /
10057, 'ESST1A', 1,  1, 1, 0.0,  999.000,     -999.000,     0.510000,      2.01000,      0.00000,      0.00000,      178.900, 0.290000E-01,  999.000,     -999.000,      4.48000,     -1.79000,     0.110000,      0.00000,      1.00000,      0.00000,      2.80000    / 
10057, 'WSIEG1', 1 ,      0, 0 ,  25.0000 ,     0.00000 ,     3.30000 ,    0.300000 ,    0.250000 ,    -3.30000  ,    1.01000 ,     0.00000 ,    0.861200E-01 , 1.00000, 
0.00000 ,     0.00000  ,    0.00000   ,   0.00000  ,    0.00000 ,     0.00000  ,    0.00000  ,    0.00000   ,   0.00000  ,    0.00000  ,  
0.00000 ,     0.00000  ,    0.00000   ,   0.00000  ,    0.00000 ,     0.00000  ,   0.00000  ,    0.00000   ,   0.00000  ,    0.00000  ,  
0.00000 ,     0.00000  ,    0.00000  ,   0 / 

10043, 'GENSAL', 1,   6.00000,     0.350000E-01, 0.350000E-01,  10.00000,    3.00000,      1.40000,      1.00000,     0.210000,     0.180000,     0.120000,     0.170000,     0.550000     /
10043, 'ESST1A', 1,  1, 1, 0.0,  999.000,     -999.000,     0.510000,      2.01000,      0.00000,      0.00000,      178.900, 0.290000E-01,  999.000,     -999.000,      4.48000,     -1.79000,     0.110000,      0.00000,      1.00000,      0.00000,      2.80000    / 
10043, 'WSIEG1', 1 ,      0, 0 ,  25.0000 ,     0.00000 ,     3.30000 ,    0.300000 ,    0.250000 ,    -3.30000  ,    1.01000 ,     0.00000 ,    0.861200E-01 , 1.00000, 
0.00000 ,     0.00000  ,    0.00000   ,   0.00000  ,    0.00000 ,     0.00000  ,    0.00000  ,    0.00000   ,   0.00000  ,    0.00000  ,  
0.00000 ,     0.00000  ,    0.00000   ,   0.00000  ,    0.00000 ,     0.00000  ,   0.00000  ,    0.00000   ,   0.00000  ,    0.00000  ,  
0.00000 ,     0.00000  ,    0.00000  ,   0 / 

10051, 'GENSAL', 1,   6.00000,     0.350000E-01, 0.350000E-01,  10.00000,    3.00000,      1.40000,      1.00000,     0.210000,     0.180000,     0.120000,     0.170000,     0.550000     /
10051, 'ESST1A', 1,  1, 1, 0.0,  999.000,     -999.000,     0.510000,      2.01000,      0.00000,      0.00000,      178.900, 0.290000E-01,  999.000,     -999.000,      4.48000,     -1.79000,     0.110000,      0.00000,      1.00000,      0.00000,      2.80000    / 
10051, 'WSIEG1', 1 ,      0, 0 ,  25.0000 ,     0.00000 ,     3.30000 ,    0.300000 ,    0.250000 ,    -3.30000  ,    1.01000 ,     0.00000 ,    0.861200E-01 , 1.00000, 
0.00000 ,     0.00000  ,    0.00000   ,   0.00000  ,    0.00000 ,     0.00000  ,    0.00000  ,    0.00000   ,   0.00000  ,    0.00000  ,  
0.00000 ,     0.00000  ,    0.00000   ,   0.00000  ,    0.00000 ,     0.00000  ,   0.00000  ,    0.00000   ,   0.00000  ,    0.00000  ,  
0.00000 ,     0.00000  ,    0.00000  ,   0 / 

10026, 'GENSAL', 1,   6.00000,     0.350000E-01, 0.350000E-01,  10.00000,    3.00000,      1.40000,      1.00000,     0.210000,     0.180000,     0.120000,     0.170000,     0.550000     /
10026, 'ESST1A', 1,  1, 1, 0.0,  999.000,     -999.000,     0.510000,      2.01000,      0.00000,      0.00000,      178.900, 0.290000E-01,  999.000,     -999.000,      4.48000,     -1.79000,     0.110000,      0.00000,      1.00000,      0.00000,      2.80000    / 
10026, 'WSIEG1', 1 ,      0, 0 ,  25.0000 ,     0.00000 ,     3.30000 ,    0.300000 ,    0.250000 ,    -3.30000  ,    1.01000 ,     0.00000 ,    0.861200E-01 , 1.00000, 
0.00000 ,     0.00000  ,    0.00000   ,   0.00000  ,    0.00000 ,     0.00000  ,    0.00000  ,    0.00000   ,   0.00000  ,    0.00000  ,  
0.00000 ,     0.00000  ,    0.00000   ,   0.00000  ,    0.00000 ,     0.00000  ,   0.00000  ,    0.00000   ,   0.00000  ,    0.00000  ,  
0.00000 ,     0.00000  ,    0.00000  ,   0 / 

10022, 'GENSAL', 1,   6.00000,     0.350000E-01, 0.350000E-01,  10.00000,    3.00000,      1.40000,      1.00000,     0.210000,     0.180000,     0.120000,     0.170000,     0.550000     /
10022, 'ESST1A', 1,  1, 1, 0.0,  999.000,     -999.000,     0.510000,      2.01000,      0.00000,      0.00000,      178.900, 0.290000E-01,  999.000,     -999.000,      4.48000,     -1.79000,     0.110000,      0.00000,      1.00000,      0.00000,      2.80000    / 
10022, 'WSIEG1', 1 ,      0, 0 ,  25.0000 ,     0.00000 ,     3.30000 ,    0.300000 ,    0.250000 ,    -3.30000  ,    1.01000 ,     0.00000 ,    0.861200E-01 , 1.00000, 
0.00000 ,     0.00000  ,    0.00000   ,   0.00000  ,    0.00000 ,     0.00000  ,    0.00000  ,    0.00000   ,   0.00000  ,    0.00000  ,  
0.00000 ,     0.00000  ,    0.00000   ,   0.00000  ,    0.00000 ,     0.00000  ,   0.00000  ,    0.00000   ,   0.00000  ,    0.00000  ,  
0.00000 ,     0.00000  ,    0.00000  ,   0 / 

10020, 'GENSAL', 1,   6.00000,     0.350000E-01, 0.350000E-01,  10.00000,    3.00000,      1.40000,      1.00000,     0.210000,     0.180000,     0.120000,     0.170000,     0.550000     /
10020, 'ESST1A', 1,  1, 1, 0.0,  999.000,     -999.000,     0.510000,      2.01000,      0.00000,      0.00000,      178.900, 0.290000E-01,  999.000,     -999.000,      4.48000,     -1.79000,     0.110000,      0.00000,      1.00000,      0.00000,      2.80000    / 
10020, 'WSIEG1', 1 ,      0, 0 ,  25.0000 ,     0.00000 ,     3.30000 ,    0.300000 ,    0.250000 ,    -3.30000  ,    1.01000 ,     0.00000 ,    0.861200E-01 , 1.00000, 
0.00000 ,     0.00000  ,    0.00000   ,   0.00000  ,    0.00000 ,     0.00000  ,    0.00000  ,    0.00000   ,   0.00000  ,    0.00000  ,  
0.00000 ,     0.00000  ,    0.00000   ,   0.00000  ,    0.00000 ,     0.00000  ,   0.00000  ,    0.00000   ,   0.00000  ,    0.00000  ,  
0.00000 ,     0.00000  ,    0.00000  ,   0 / 

10017, 'GENSAL', 1,   6.00000,     0.350000E-01, 0.350000E-01,  10.00000,    3.00000,      1.40000,      1.00000,     0.210000,     0.180000,     0.120000,     0.170000,     0.550000     /
10017, 'ESST1A', 1,  1, 1, 0.0,  999.000,     -999.000,     0.510000,      2.01000,      0.00000,      0.00000,      178.900, 0.290000E-01,  999.000,     -999.000,      4.48000,     -1.79000,     0.110000,      0.00000,      1.00000,      0.00000,      2.80000    / 
10017, 'WSIEG1', 1 ,      0, 0 ,  25.0000 ,     0.00000 ,     3.30000 ,    0.300000 ,    0.250000 ,    -3.30000  ,    1.01000 ,     0.00000 ,    0.861200E-01 , 1.00000, 
0.00000 ,     0.00000  ,    0.00000   ,   0.00000  ,    0.00000 ,     0.00000  ,    0.00000  ,    0.00000   ,   0.00000  ,    0.00000  ,  
0.00000 ,     0.00000  ,    0.00000   ,   0.00000  ,    0.00000 ,     0.00000  ,   0.00000  ,    0.00000   ,   0.00000  ,    0.00000  ,  
0.00000 ,     0.00000  ,    0.00000  ,   0 / 

10024, 'GENSAL', 1,   6.00000,     0.350000E-01, 0.350000E-01,  10.00000,    3.00000,      1.40000,      1.00000,     0.210000,     0.180000,     0.120000,     0.170000,     0.550000     /
10024, 'ESST1A', 1,  1, 1, 0.0,  999.000,     -999.000,     0.510000,      2.01000,      0.00000,      0.00000,      178.900, 0.290000E-01,  999.000,     -999.000,      4.48000,     -1.79000,     0.110000,      0.00000,      1.00000,      0.00000,      2.80000    / 
10024, 'WSIEG1', 1 ,      0, 0 ,  25.0000 ,     0.00000 ,     3.30000 ,    0.300000 ,    0.250000 ,    -3.30000  ,    1.01000 ,     0.00000 ,    0.861200E-01 , 1.00000, 
0.00000 ,     0.00000  ,    0.00000   ,   0.00000  ,    0.00000 ,     0.00000  ,    0.00000  ,    0.00000   ,   0.00000  ,    0.00000  ,  
0.00000 ,     0.00000  ,    0.00000   ,   0.00000  ,    0.00000 ,     0.00000  ,   0.00000  ,    0.00000   ,   0.00000  ,    0.00000  ,  
0.00000 ,     0.00000  ,    0.00000  ,   0 / 

10048, 'GENSAL', 1,   6.00000,     0.350000E-01, 0.350000E-01,  10.00000,    3.00000,      1.40000,      1.00000,     0.210000,     0.180000,     0.120000,     0.170000,     0.550000     /
10048, 'ESST1A', 1,  1, 1, 0.0,  999.000,     -999.000,     0.510000,      2.01000,      0.00000,      0.00000,      178.900, 0.290000E-01,  999.000,     -999.000,      4.48000,     -1.79000,     0.110000,      0.00000,      1.00000,      0.00000,      2.80000    / 
10048, 'WSIEG1', 1 ,      0, 0 ,  25.0000 ,     0.00000 ,     3.30000 ,    0.300000 ,    0.250000 ,    -3.30000  ,    1.01000 ,     0.00000 ,    0.861200E-01 , 1.00000, 
0.00000 ,     0.00000  ,    0.00000   ,   0.00000  ,    0.00000 ,     0.00000  ,    0.00000  ,    0.00000   ,   0.00000  ,    0.00000  ,  
0.00000 ,     0.00000  ,    0.00000   ,   0.00000  ,    0.00000 ,     0.00000  ,   0.00000  ,    0.00000   ,   0.00000  ,    0.00000  ,  
0.00000 ,     0.00000  ,    0.00000  ,   0 / 

10011, 'GENSAL', 1,   6.00000,     0.350000E-01, 0.350000E-01,  10.00000,    3.00000,      1.40000,      1.00000,     0.210000,     0.180000,     0.120000,     0.170000,     0.550000     /
10011, 'ESST1A', 1,  1, 1, 0.0,  999.000,     -999.000,     0.510000,      2.01000,      0.00000,      0.00000,      178.900, 0.290000E-01,  999.000,     -999.000,      4.48000,     -1.79000,     0.110000,      0.00000,      1.00000,      0.00000,      2.80000    / 
10011, 'WSIEG1', 1 ,      0, 0 ,  25.0000 ,     0.00000 ,     3.30000 ,    0.300000 ,    0.250000 ,    -3.30000  ,    1.01000 ,     0.00000 ,    0.861200E-01 , 1.00000, 
0.00000 ,     0.00000  ,    0.00000   ,   0.00000  ,    0.00000 ,     0.00000  ,    0.00000  ,    0.00000   ,   0.00000  ,    0.00000  ,  
0.00000 ,     0.00000  ,    0.00000   ,   0.00000  ,    0.00000 ,     0.00000  ,   0.00000  ,    0.00000   ,   0.00000  ,    0.00000  ,  
0.00000 ,     0.00000  ,    0.00000  ,   0 / 

10035, 'GENSAL', 1,   6.00000,     0.350000E-01, 0.350000E-01,  10.00000,    3.00000,      1.40000,      1.00000,     0.210000,     0.180000,     0.120000,     0.170000,     0.550000     /
10035, 'ESST1A', 1,  1, 1, 0.0,  999.000,     -999.000,     0.510000,      2.01000,      0.00000,      0.00000,      178.900, 0.290000E-01,  999.000,     -999.000,      4.48000,     -1.79000,     0.110000,      0.00000,      1.00000,      0.00000,      2.80000    / 
10035, 'WSIEG1', 1 ,      0, 0 ,  25.0000 ,     0.00000 ,     3.30000 ,    0.300000 ,    0.250000 ,    -3.30000  ,    1.01000 ,     0.00000 ,    0.861200E-01 , 1.00000, 
0.00000 ,     0.00000  ,    0.00000   ,   0.00000  ,    0.00000 ,     0.00000  ,    0.00000  ,    0.00000   ,   0.00000  ,    0.00000  ,  
0.00000 ,     0.00000  ,    0.00000   ,   0.00000  ,    0.00000 ,     0.00000  ,   0.00000  ,    0.00000   ,   0.00000  ,    0.00000  ,  
0.00000 ,     0.00000  ,    0.00000  ,   0 / 

10040, 'GENSAL', 1,   6.00000,     0.350000E-01, 0.350000E-01,  10.00000,    3.00000,      1.40000,      1.00000,     0.210000,     0.180000,     0.120000,     0.170000,     0.550000     /
10040, 'ESST1A', 1,  1, 1, 0.0,  999.000,     -999.000,     0.510000,      2.01000,      0.00000,      0.00000,      178.900, 0.290000E-01,  999.000,     -999.000,      4.48000,     -1.79000,     0.110000,      0.00000,      1.00000,      0.00000,      2.80000    / 
10040, 'WSIEG1', 1 ,      0, 0 ,  25.0000 ,     0.00000 ,     3.30000 ,    0.300000 ,    0.250000 ,    -3.30000  ,    1.01000 ,     0.00000 ,    0.861200E-01 , 1.00000, 
0.00000 ,     0.00000  ,    0.00000   ,   0.00000  ,    0.00000 ,     0.00000  ,    0.00000  ,    0.00000   ,   0.00000  ,    0.00000  ,  
0.00000 ,     0.00000  ,    0.00000   ,   0.00000  ,    0.00000 ,     0.00000  ,   0.00000  ,    0.00000   ,   0.00000  ,    0.00000  ,  
0.00000 ,     0.00000  ,    0.00000  ,   0 / 

10032, 'GENSAL', 1,   6.00000,     0.350000E-01, 0.350000E-01,  10.00000,    3.00000,      1.40000,      1.00000,     0.210000,     0.180000,     0.120000,     0.170000,     0.550000     /
10032, 'ESST1A', 1,  1, 1, 0.0,  999.000,     -999.000,     0.510000,      2.01000,      0.00000,      0.00000,      178.900, 0.290000E-01,  999.000,     -999.000,      4.48000,     -1.79000,     0.110000,      0.00000,      1.00000,      0.00000,      2.80000    / 
10032, 'WSIEG1', 1 ,      0, 0 ,  25.0000 ,     0.00000 ,     3.30000 ,    0.300000 ,    0.250000 ,    -3.30000  ,    1.01000 ,     0.00000 ,    0.861200E-01 , 1.00000, 
0.00000 ,     0.00000  ,    0.00000   ,   0.00000  ,    0.00000 ,     0.00000  ,    0.00000  ,    0.00000   ,   0.00000  ,    0.00000  ,  
0.00000 ,     0.00000  ,    0.00000   ,   0.00000  ,    0.00000 ,     0.00000  ,   0.00000  ,    0.00000   ,   0.00000  ,    0.00000  ,  
0.00000 ,     0.00000  ,    0.00000  ,   0 / 

10014, 'GENSAL', 1,   6.00000,     0.350000E-01, 0.350000E-01,  10.00000,    3.00000,      1.40000,      1.00000,     0.210000,     0.180000,     0.120000,     0.170000,     0.550000     /
10014, 'ESST1A', 1,  1, 1, 0.0,  999.000,     -999.000,     0.510000,      2.01000,      0.00000,      0.00000,      178.900, 0.290000E-01,  999.000,     -999.000,      4.48000,     -1.79000,     0.110000,      0.00000,      1.00000,      0.00000,      2.80000    / 