1, 'GENSAL', 1,   6.00000,     0.350000E-01, 0.350000E-01,  10.00000,    0.00000,      1.40000,      1.00000,     0.210000,     0.180000,     0.120000,     0.170000,     0.550000     /
1, 'ESST1A', 1,  1, 1, 0.0,  999.000,     -999.000,     0.510000,      2.01000,      0.00000,      0.00000,      178.900, 
0.290000E-01,  999.000,     -999.000,      4.48000,     -1.79000,     0.110000,      0.00000,      1.00000,      0.00000,      2.80000     /
1, 'WSIEG1', 1 ,      0, 0 ,  25.0000 ,     0.00000 ,     0.0000 ,    0.300000 ,    1.0000 ,    -10.00000  ,    1.0000 ,     0.00000 ,    0.861200E-01 , 1.00000, 
0.00000 ,     0.00000  ,    0.00000   ,   0.00000  ,    0.00000 ,     0.00000  ,    0.00000  ,    0.00000   ,   0.00000  ,    0.00000  ,  
0.00000 ,     0.00000  ,    0.00000   ,   0.00000  ,    0.00000 ,     0.00000  ,   0.00000  ,    0.00000   ,   0.00000  ,    0.00000  ,  
0.00000 ,     0.00000  ,    0.00000  ,   0 / 

2, 'GENSAL', 1,   6.00000,     0.350000E-01, 0.350000E-01,  10.00000,    0.00000,      1.40000,      1.00000,     0.210000,     0.180000,     0.120000,     0.170000,     0.550000     /
2, 'ESST1A', 1,  1, 1, 0.0,  999.000,     -999.000,     0.510000,      2.01000,      0.00000,      0.00000,      178.900, 
0.290000E-01,  999.000,     -999.000,      4.48000,     -1.79000,     0.110000,      0.00000,      1.00000,      0.00000,      2.80000     / 
2, 'WSIEG1', 1 ,      0, 0 ,  25.0000 ,     0.00000 ,     0.0000 ,    0.300000 ,    1.0000 ,    -10.00000  ,    1.0000 ,     0.00000 ,    0.861200E-01 , 1.00000, 
0.00000 ,     0.00000  ,    0.00000   ,   0.00000  ,    0.00000 ,     0.00000  ,    0.00000  ,    0.00000   ,   0.00000  ,    0.00000  ,  
0.00000 ,     0.00000  ,    0.00000   ,   0.00000  ,    0.00000 ,     0.00000  ,   0.00000  ,    0.00000   ,   0.00000  ,    0.00000  ,  
0.00000 ,     0.00000  ,    0.00000  ,   0 / 

3, 'GENSAL', 1,   6.00000,     0.350000E-01, 0.350000E-01,  10.00000,    0.00000,      1.40000,      1.00000,     0.210000,     0.180000,     0.120000,     0.170000,     0.550000     /
3, 'ESST1A', 1,  1, 1, 0.0,  999.000,     -999.000,     0.510000,      2.01000,      0.00000,      0.00000,      178.900, 
0.290000E-01,  999.000,     -999.000,      4.48000,     -1.79000,     0.110000,      0.00000,      1.00000,      0.00000,      2.80000     / 
3, 'WSIEG1', 1 ,      0, 0 ,  25.0000 ,     0.00000 ,     0.0000 ,    0.300000 ,    1.0000 ,    -10.00000  ,    1.0000 ,     0.00000 ,    0.861200E-01 , 1.00000, 
0.00000 ,     0.00000  ,    0.00000   ,   0.00000  ,    0.00000 ,     0.00000  ,    0.00000  ,    0.00000   ,   0.00000  ,    0.00000  ,  
0.00000 ,     0.00000  ,    0.00000   ,   0.00000  ,    0.00000 ,     0.00000  ,   0.00000  ,    0.00000   ,   0.00000  ,    0.00000  ,  
0.00000 ,     0.00000  ,    0.00000  ,   0 / 

5, 'USRLOD', 1, 'ACMTBLU1', 12, 1, 0, 35, 9, 29, 16, 0.033,   0.40,  0.02, 0.05,   0.8,   0.97,    0.60,   0.124,   0.114,   0.0,  0.0,  1.0, 6.0, 2.0, 12.0, 3.2, 11.0, 2.5, 0.86, 0.00, 0.90, 1.0,    -3.3,    0.45,   0.35,   0.5, 0.4,   10,  1.3,  4.30, 0.0,  0.8,  0.2,  0.90,  5.0 /


