1,'GENSAL',1 ,  8.96,   0.05,   0.05,   23.64,  0.0125,  0.1460, 0.0969,  0.0608,  0.05,  0.026, 0.000, 0.000,/USRWHT
2,'GENSAL',1 ,  6.0,    0.037,  0.074,  6.470,  0.0068,  0.8958, 0.8645,  0.1198,  0.12, 0.06, 0.000, 0.000,/USRWHT
3,'GENSAL',1 ,  5.89,   0.032,  0.079,  3.010,  0.0048,  1.3125, 1.2578,  0.1813,  0.1, 0.08, 0.000, 0.000,/USRWHT

