1, 'GENCLS', '1 ',  13.64,   9.6 /
2, 'GENCLS', '1 ',    6.4,   2.5 /
3, 'GENCLS', '1 ',   3.01,   1   /
