1,'GENROU',1 ,  7.0,   0.03,   0.75,   0.05,  30.0,  10.0,   2.1, 2.0,  0.2,   0.5,  0.18,  0.15, 0.0,  0.0/USRWHT
1, 'EXDC1',1 ,    0.16668E-01,   68.600,      0.20000E-01,   0.0000,
0.0000,       7.4500,      -7.4500,       1.0000,       3.8700,
0.10000,       1.0000,       0.0000,       3.4000,       1.0700,
4.6000,       1.2000    /
1, 'WSIEG1',1 ,      0, 0 ,  25.0000 ,     0.00000 ,     3.30000 ,    0.300000 ,    0.250000 ,    -3.30000  ,    51.01000 ,     0.00000 ,    0.861200E-01 , 1.00000, 
0.00000 ,     0.00000  ,    0.00000   ,   0.00000  ,    0.00000 ,     0.00000  ,    0.00000  ,    0.00000   ,   0.00000  ,    0.00000  ,  
0.00000 ,     0.00000  ,    0.00000   ,   0.00000  ,    0.00000 ,     0.00000  ,   0.00000  ,    0.00000   ,   0.00000  ,    0.00000  ,  
0.00000 ,     0.00000  ,    0.00000  ,   0 /
