1,'GENROU',1 ,  7.0,   0.03,   0.75,   0.05,  3.0,  0.0,   2.1, 2.0,  0.2,   0.5,  0.18,  0.15, 0.67000E-01,  0.57900/USRWHT
2,'GENROU',1 ,  7.0,   0.03,   0.75,   0.05,  3.0,  0.0,   2.1, 2.0,  0.2,   0.5,  0.18,  0.15, 0.67000E-01,  0.57900/USRWHT
3,'GENROU',1 ,  7.0,   0.03,   0.75,   0.05,  3.0,  0.0,   2.1, 2.0,  0.2,   0.5,  0.18,  0.15, 0.67000E-01,  0.57900/USRWHT