1,'GENSAL',1 ,  8.96,   0.05,   0.05,   23.64,  0.0125,  0.1460, 0.0969,  0.0608,  0.05,  0.026, 0.000, 0.000,/USRWHT
2,'GENSAL',1 ,  6.0,    0.037,  0.074,  6.470,  0.0068,  0.8958, 0.8645,  0.1198,  0.12, 0.06, 0.000, 0.000,/USRWHT
3,'GENSAL',1 ,  5.89,   0.032,  0.079,  3.010,  0.0048,  1.3125, 1.2578,  0.1813,  0.1, 0.08, 0.000, 0.000,/USRWHT
1, 'ESST1A', 1,  1, 1, 0.0,  999.000,     -999.000,     0.510000,      2.01000,      0.00000,      0.00000,      178.900, 0.290000E-01,  999.000,     -999.000,      24.48000,     -21.79000,     0.110000,      0.00000,      1.00000,      0.00000,      2.80000    / 
2, 'ESST1A', 1,  1, 1, 0.0,  999.000,     -999.000,     0.510000,      2.01000,      0.00000,      0.00000,      178.900, 0.290000E-01,  999.000,     -999.000,      24.48000,     -21.79000,     0.110000,      0.00000,      1.00000,      0.00000,      2.80000    / 
3, 'ESST1A', 1,  1, 1, 0.0,  999.000,     -999.000,     0.510000,      2.01000,      0.00000,      0.00000,      178.900, 0.290000E-01,  999.000,     -999.000,      24.48000,     -21.79000,     0.110000,      0.00000,      1.00000,      0.00000,      2.80000    / 
