1,'GENROU',1 ,  7.0,   0.03,   0.75,   0.05,  3.0,  0.0,   2.1, 2.0,  0.2,   0.5,  0.18,  0.15, 0.67000E-01,  0.57900/USRWHT
2,'GENROU',1 ,  7.0,   0.03,   0.75,   0.05,  3.0,  0.0,   2.1, 2.0,  0.2,   0.5,  0.18,  0.15, 0.67000E-01,  0.57900/USRWHT
3,'GENROU',1 ,  7.0,   0.03,   0.75,   0.05,  3.0,  0.0,   2.1, 2.0,  0.2,   0.5,  0.18,  0.15, 0.67000E-01,  0.57900/USRWHT
1, 'ESST1A', 1,  1, 1, 0.0,  999.000,     -999.000,     0.510000,      2.01000,      0.00000,      0.00000,      178.900, 0.290000E-01,  999.000,     -999.000,      24.48000,     -21.79000,     0.110000,      0.00000,      1.00000,      0.00000,      2.80000    / 
2, 'ESST1A', 1,  1, 1, 0.0,  999.000,     -999.000,     0.510000,      2.01000,      0.00000,      0.00000,      178.900, 0.290000E-01,  999.000,     -999.000,      24.48000,     -21.79000,     0.110000,      0.00000,      1.00000,      0.00000,      2.80000    / 
3, 'ESST1A', 1,  1, 1, 0.0,  999.000,     -999.000,     0.510000,      2.01000,      0.00000,      0.00000,      178.900, 0.290000E-01,  999.000,     -999.000,      24.48000,     -21.79000,     0.110000,      0.00000,      1.00000,      0.00000,      2.80000    / 