1,'GENROU',1 ,  7.0,   0.03,   0.75,   0.05,  3.0,  0.0,   2.1, 2.0,  0.2,   0.5,  0.18,  0.15, 0.67000E-01,  0.57900 /
2,'GENROU',1 ,  7.0,   0.03,   0.75,   0.05,  3.0,  0.0,   2.1, 2.0,  0.2,   0.5,  0.18,  0.15, 0.67000E-01,  0.57900 /
3,'GENROU',1 ,  7.0,   0.03,   0.75,   0.05,  3.0,  0.0,   2.1, 2.0,  0.2,   0.5,  0.18,  0.15, 0.67000E-01,  0.57900 /
1, 'IEEET1', 1,    0.16668E-01,   68.600,      0.20000E-01, 7.4500,      -7.4500,       1.0000,       3.8700,
0.10000,       1.0000,       0.0000,       3.4000,       1.0700,
4.6000,       1.2000    /
2, 'IEEET1', 1,    0.16668E-01,   68.600,      0.20000E-01, 7.4500,      -7.4500,       1.0000,       3.8700,
0.10000,       1.0000,       0.0000,       3.4000,       1.0700,
4.6000,       1.2000    /
3, 'IEEET1', 1,    0.16668E-01,   68.600,      0.20000E-01, 7.4500,      -7.4500,       1.0000,       3.8700,
0.10000,       1.0000,       0.0000,       3.4000,       1.0700,
4.6000,       1.2000    /

