2357, 'GENCLS', 1,   6.00000,    3 /
809, 'GENCLS', 1,   6.00000,    3 /
2267, 'GENCLS', 1,   6.00000,    3 /
2691, 'GENCLS', 1,   6.00000,    3 /
2585, 'GENCLS', 1,   6.00000,    3 /
2619, 'GENCLS', 1,   6.00000,    3 /
2390, 'GENCLS', 1,   6.00000,    3 /
2322, 'GENCLS', 1,   6.00000,    3 /
2349, 'GENCLS', 1,   6.00000,    3 /
2600, 'GENCLS', 1,   6.00000,    3 /
2627, 'GENCLS', 1,   6.00000,    3 /
2644, 'GENCLS', 1,   6.00000,    3 /
2685, 'GENCLS', 1,   6.00000,    3 /
302, 'GENCLS', 1,   6.00000,    3 /
2524, 'GENCLS', 1,   6.00000,    3 /
3048, 'GENCLS', 1,   6.00000,    3 /
2408, 'GENCLS', 1,   6.00000,    3 /
3065, 'GENCLS', 1,   6.00000,    3 /
3086, 'GENCLS', 1,   6.00000,    3 /
3087, 'GENCLS', 1,   6.00000,    3 /
587, 'GENCLS', 1,   6.00000,    3 /
2345, 'GENCLS', 1,   6.00000,    3 /
2842, 'GENCLS', 1,   6.00000,    3 /
2856, 'GENCLS', 1,   6.00000,    3 /
2857, 'GENCLS', 1,   6.00000,    3 /
3045, 'GENCLS', 1,   6.00000,    3 /
2934, 'GENCLS', 1,   6.00000,    3 /
1067, 'GENCLS', 1,   6.00000,    3 /
301, 'GENCLS', 1,   6.00000,    3 /
2324, 'GENCLS', 1,   6.00000,    3 /
1547, 'GENCLS', 1,   6.00000,    3 /
2684, 'GENCLS', 1,   6.00000,    3 /
1268, 'GENCLS', 1,   6.00000,    3 /
2555, 'GENCLS', 1,   6.00000,    3 /
1057, 'GENCLS', 1,   6.00000,    3 /
1546, 'GENCLS', 1,   6.00000,    3 /
2833, 'GENCLS', 1,   6.00000,    3 /
985, 'GENCLS', 1,   6.00000,    3 /
2597, 'GENCLS', 1,   6.00000,    3 /
2598, 'GENCLS', 1,   6.00000,    3 /
369, 'GENCLS', 1,   6.00000,    3 /
3069, 'GENCLS', 1,   6.00000,    3 /
2887, 'GENCLS', 1,   6.00000,    3 /
2235, 'GENCLS', 1,   6.00000,    3 /
2997, 'GENCLS', 1,   6.00000,    3 /
2889, 'GENCLS', 1,   6.00000,    3 /
2930, 'GENCLS', 1,   6.00000,    3 /
1954, 'GENCLS', 1,   6.00000,    3 /
251, 'GENCLS', 1,   6.00000,    3 /
518, 'GENCLS', 1,   6.00000,    3 /
1447, 'GENCLS', 1,   6.00000,    3 /
1448, 'GENCLS', 1,   6.00000,    3 /
1449, 'GENCLS', 1,   6.00000,    3 /
3060, 'GENCLS', 1,   6.00000,    3 /
3074, 'GENCLS', 1,   6.00000,    3 /
2909, 'GENCLS', 1,   6.00000,    3 /
2274, 'GENCLS', 1,   6.00000,    3 /
3073, 'GENCLS', 1,   6.00000,    3 /
415, 'GENCLS', 1,   6.00000,    3 /
2214, 'GENCLS', 1,   6.00000,    3 /
1132, 'GENCLS', 1,   6.00000,    3 /
1164, 'GENCLS', 1,   6.00000,    3 /
492, 'GENCLS', 1,   6.00000,    3 /
2100, 'GENCLS', 1,   6.00000,    3 /
1189, 'GENCLS', 1,   6.00000,    3 /
1769, 'GENCLS', 1,   6.00000,    3 /
493, 'GENCLS', 1,   6.00000,    3 /
494, 'GENCLS', 1,   6.00000,    3 /
1587, 'GENCLS', 1,   6.00000,    3 /
2814, 'GENCLS', 1,   6.00000,    3 /
2310, 'GENCLS', 1,   6.00000,    3 /
2403, 'GENCLS', 1,   6.00000,    3 /
2574, 'GENCLS', 1,   6.00000,    3 /
740, 'GENCLS', 1,   6.00000,    3 /
2323, 'GENCLS', 1,   6.00000,    3 /
495, 'GENCLS', 1,   6.00000,    3 /
3119, 'GENCLS', 1,   6.00000,    3 /
1476, 'GENCLS', 1,   6.00000,    3 /
1656, 'GENCLS', 1,   6.00000,    3 /
876, 'GENCLS', 1,   6.00000,    3 /
1983, 'GENCLS', 1,   6.00000,    3 /
1984, 'GENCLS', 1,   6.00000,    3 /
134, 'GENCLS', 1,   6.00000,    3 /
1087, 'GENCLS', 1,   6.00000,    3 /
1263, 'GENCLS', 1,   6.00000,    3 /
152, 'GENCLS', 1,   6.00000,    3 /
153, 'GENCLS', 1,   6.00000,    3 /
121, 'GENCLS', 1,   6.00000,    3 /
122, 'GENCLS', 1,   6.00000,    3 /
133, 'GENCLS', 1,   6.00000,    3 /
1658, 'GENCLS', 1,   6.00000,    3 /
1982, 'GENCLS', 1,   6.00000,    3 /
1668, 'GENCLS', 1,   6.00000,    3 /
3103, 'GENCLS', 1,   6.00000,    3 /
2300, 'GENCLS', 1,   6.00000,    3 /
236, 'GENCLS', 1,   6.00000,    3 /
23, 'GENCLS', 1,   6.00000,    3 /
22, 'GENCLS', 1,   6.00000,    3 /
169, 'GENCLS', 1,   6.00000,    3 /
188, 'GENCLS', 1,   6.00000,    3 /
517, 'GENCLS', 1,   6.00000,    3 /
2535, 'GENCLS', 1,   6.00000,    3 /
1011, 'GENCLS', 1,   6.00000,    3 /
171, 'GENCLS', 1,   6.00000,    3 /
189, 'GENCLS', 1,   6.00000,    3 /
55, 'GENCLS', 1,   6.00000,    3 /
922, 'GENCLS', 1,   6.00000,    3 /
142, 'GENCLS', 1,   6.00000,    3 /
2144, 'GENCLS', 1,   6.00000,    3 /
180, 'GENCLS', 1,   6.00000,    3 /
68, 'GENCLS', 1,   6.00000,    3 /
1588, 'GENCLS', 1,   6.00000,    3 /
1589, 'GENCLS', 1,   6.00000,    3 /
1746, 'GENCLS', 1,   6.00000,    3 /
119, 'GENCLS', 1,   6.00000,    3 /
120, 'GENCLS', 1,   6.00000,    3 /
143, 'GENCLS', 1,   6.00000,    3 /
92, 'GENCLS', 1,   6.00000,    3 /
240, 'GENCLS', 1,   6.00000,    3 /
69, 'GENCLS', 1,   6.00000,    3 /
71, 'GENCLS', 1,   6.00000,    3 /
57, 'GENCLS', 1,   6.00000,    3 /
144, 'GENCLS', 1,   6.00000,    3 /
2667, 'GENCLS', 1,   6.00000,    3 /
177, 'GENCLS', 1,   6.00000,    3 /
59, 'GENCLS', 1,   6.00000,    3 /
58, 'GENCLS', 1,   6.00000,    3 /
316, 'GENCLS', 1,   6.00000,    3 /
38, 'GENCLS', 1,   6.00000,    3 /
36, 'GENCLS', 1,   6.00000,    3 /
1289, 'GENCLS', 1,   6.00000,    3 /
1290, 'GENCLS', 1,   6.00000,    3 /
96, 'GENCLS', 1,   6.00000,    3 /
190, 'GENCLS', 1,   6.00000,    3 /
37, 'GENCLS', 1,   6.00000,    3 /
