1, 'GENCLS', 1, 5.148000, 2.000000 /
2, 'GENCLS', 1, 6.540000, 2.000000 /
3, 'GENCLS', 1, 6.540000, 2.000000 /
4, 'GENCLS', 1, 5.060000, 2.000000 /
5, 'GENCLS', 1, 5.060000, 2.000000 /
