1, 'GENCLS', 1, 518.000000, 518.100000 /
2, 'GENCLS', 1, 3.140000, 3.000000 /
3, 'GENCLS', 1, 4.430000, 4.000000 /
4, 'GENCLS', 1, 4.430000, 4.000000 /
5, 'GENCLS', 1, 6.470000, 6.000000 /
6, 'GENCLS', 1, 3.140000, 3.000000 /
7, 'GENCLS', 1, 1.410000, 1.410000 /
8, 'GENCLS', 1, 52.100000, 52.180000 /
9, 'GENCLS', 1, 6.650000, 6.650000 /
10, 'GENCLS', 1, 1.280000, 1.290000 /
11, 'GENCLS', 1, 2.110000, 2.120000 /
12, 'GENCLS', 1, 20.500000, 20.560000 /
13, 'GENCLS', 1, 0.760000, 0.760000 /
14, 'GENCLS', 1, 1.680000, 1.680000 /
15, 'GENCLS', 1, 17.400000, 34.690000 /
16, 'GENCLS', 1, 5.460000, 5.460000 /
17, 'GENCLS', 1, 2.120000, 2.120000 /
18, 'GENCLS', 1, 5.490000, 5.490000 /
19, 'GENCLS', 1, 13.900000, 13.160000 /
20, 'GENCLS', 1, 17.100000, 17.100000 /
21, 'GENCLS', 1, 7.560000, 7.560000 /
22, 'GENCLS', 1, 12.200000, 12.300000 /
23, 'GENCLS', 1, 3.530000, 100.000000 /
24, 'GENCLS', 1, 8.160000, 8.160000 /
25, 'GENCLS', 1, 30.400000, 30.400000 /
26, 'GENCLS', 1, 2.660000, 2.660000 /
27, 'GENCLS', 1, 12.200000, 12.300000 /
28, 'GENCLS', 1, 97.300000, 97.300000 /
29, 'GENCLS', 1, 106.000000, 105.500000 /
30, 'GENCLS', 1, 102.000000, 102.200000 /
31, 'GENCLS', 1, 162.000000, 162.500000 /
32, 'GENCLS', 1, 348.000000, 348.200000 /
33, 'GENCLS', 1, 116.000000, 116.500000 /
34, 'GENCLS', 1, 39.000000, 39.200000 /
35, 'GENCLS', 1, 116.000000, 116.900000 /
36, 'GENCLS', 1, 503.000000, 503.900000 /
37, 'GENCLS', 1, 231.000000, 230.900000 /
38, 'GENCLS', 1, 1102.000000, 1101.700000 /
39, 'GENCLS', 1, 121.000000, 120.400000 /
40, 'GENCLS', 1, 802.000000, 802.100000 /
41, 'GENCLS', 1, 232.000000, 232.600000 /
42, 'GENCLS', 1, 2019.000000, 5000.200000 /
43, 'GENCLS', 1, 469.000000, 469.300000 /
44, 'GENCLS', 1, 2211.000000, 2210.200000 /
45, 'GENCLS', 1, 889.000000, 889.200000 /
46, 'GENCLS', 1, 1474.000000, 1474.200000 /
47, 'GENCLS', 1, 950.000000, 950.800000 /
48, 'GENCLS', 1, 204.000000, 204.300000 /
49, 'GENCLS', 1, 443.000000, 443.200000 /
50, 'GENCLS', 1, 6.470000, 6.000000 /
