      1 'GENROU' 1     8.0000      0.30000E-01  0.40000      0.50000E-01
          6.5000       0.0000      1.80000      1.70000  	 0.30000
         0.55000  	   0.2500      0.20000      0.0000       0.0000      /
      1 'SEXS'   1     0.1000       10.000       200.00      0.00000
          0.0000       3.0000      /
      1 'TGOV1'  1     0.0400      2.0000       1.0000       0.0000
          3.0000       15.000      0.40000      /
      2 'GENROU' 1     8.0000      0.30000E-01  0.40000      0.50000E-01
          6.5000       0.0000      1.80000      1.70000  	 0.30000
         0.55000  	   0.2500      0.20000      0.0000       0.0000      /
      2 'SEXS'   1     0.1000       10.000       200.00      0.00000
          0.0000       3.0000      /
      2 'TGOV1'  1     0.0400      2.0000       1.0000       0.0000
          3.0000       15.000      0.40000      /
      3 'GENROU' 1     8.0000      0.30000E-01  0.40000      0.50000E-01
          6.1750       0.0000      1.80000      1.70000  	 0.30000
         0.55000  	   0.2500      0.20000      0.0000       0.0000      /
      3 'SEXS'   1     0.1000       10.000       200.00      0.00000
          0.0000       3.0000      /
      3 'TGOV1'  1     0.0400      2.0000       1.0000       0.0000
          3.0000       15.000      0.40000      /
4 'REGCA1' 1        1
         0.20000E-01   10.000      0.90000      0.40000       1.2200
          1.2000      0.90000      0.50000      -1.3000      0.20000E-01
          0.0000       100.00      -100.00      0.70000      /
4 'REECA1' 1 
             0          0            1       0       0       0
        -99         99          0.02     0.0     0.0
        0.0          1.1000   -1.0000    0.0     0.0
        0.0         0.0         0.05     0.44   -0.44
	1.05        0.9         0.0      0.01    10
	60          0           0.02     99      -99
	1           0           1.11     0.02    -1
	1           2           1        0        0
	0           0          -1        1        2
	1           0           0        0        0   /
4 'REPCA1' 1 
             0           0           0    '0 '        0       0       1
         0.20000E-01      18.000          5.0000          0.0000         0.50000E-01
          0.0000          0.0000          0.0000         0.20000E-01     0.10000
        -0.10000         -1.0000          1.0000         0.43000        -0.43000
          1.0000         0.50000E-01     0.25000         -1.0000          1.0000
          99.000         -99.000          1.0000          0.0000         0.10000
          0.0000          0.0000      /
4 'WTARA1' '1 '  1  0.007  0  /
4 'WTPTA1' '1 '   25  150  30  0  0  0.3  27  0  10  -10  /
4 'WTTQA1' '1 '   1  0.5  2.5  0.066667  60  1.1  0  0.2  0.58  0.4  0.72  0.72  0.866  0.86  1  0  /
4 'WTDTA1' '1 '  5 0.5 0.0 0.0 /
