9, 'GENSAL', 1,   6.00000,     0.350000E-01, 0.350000E-01,  10.00000,    3.00000,      1.40000,      1.00000,     0.210000,     0.180000,     0.120000,     0.170000,     0.550000     /
9, 'ESST1A', 1,   1, 1, 0.0,  999.000,     -999.000,     0.510000,      2.01000,      0.00000,      0.00000,      178.900, 0.290000E-01,  999.000,     -999.000,      4.48000,     -1.79000,     0.110000,      0.00000,      1.00000,      0.00000,      2.80000 /
9, 'WSIEG1', 1 ,      0, 0 ,  25.0000 ,     0.00000 ,     3.30000 ,    0.300000 ,    0.250000 ,    -3.30000  ,    1.01000 ,     0.00000 ,    0.861200E-01 , 1.00000, 
0.00000 ,     0.00000  ,    0.00000   ,   0.00000  ,    0.00000 ,     0.00000  ,    0.00000  ,    0.00000   ,   0.00000  ,    0.00000  ,  
0.00000 ,     0.00000  ,    0.00000   ,   0.00000  ,    0.00000 ,     0.00000  ,   0.00000  ,    0.00000   ,   0.00000  ,    0.00000  ,  
0.00000 ,     0.00000  ,    0.00000  ,   0 / 

16, 'GENSAL', 1,   6.00000,     0.350000E-01, 0.350000E-01,  10.00000,    3.00000,      1.40000,      1.00000,     0.210000,     0.180000,     0.120000,     0.170000,     0.550000     /
16, 'ESST1A', 1,   1, 1, 0.0,  999.000,     -999.000,     0.510000,      2.01000,      0.00000,      0.00000,      178.900, 0.290000E-01,  999.000,     -999.000,      4.48000,     -1.79000,     0.110000,      0.00000,      1.00000,      0.00000,      2.80000 /
16, 'WSIEG1', 1 ,      0, 0 ,  25.0000 ,     0.00000 ,     3.30000 ,    0.300000 ,    0.250000 ,    -3.30000  ,    1.01000 ,     0.00000 ,    0.861200E-01 , 1.00000, 
0.00000 ,     0.00000  ,    0.00000   ,   0.00000  ,    0.00000 ,     0.00000  ,    0.00000  ,    0.00000   ,   0.00000  ,    0.00000  ,  
0.00000 ,     0.00000  ,    0.00000   ,   0.00000  ,    0.00000 ,     0.00000  ,   0.00000  ,    0.00000   ,   0.00000  ,    0.00000  ,  
0.00000 ,     0.00000  ,    0.00000  ,   0 / 

17, 'GENSAL', 1,   6.00000,     0.350000E-01, 0.350000E-01,  10.00000,    3.00000,      1.40000,      1.00000,     0.210000,     0.180000,     0.120000,     0.170000,     0.550000     /
17, 'ESST1A', 1,   1, 1, 0.0,  999.000,     -999.000,     0.510000,      2.01000,      0.00000,      0.00000,      178.900, 0.290000E-01,  999.000,     -999.000,      4.48000,     -1.79000,     0.110000,      0.00000,      1.00000,      0.00000,      2.80000 /
17, 'WSIEG1', 1 ,      0, 0 ,  25.0000 ,     0.00000 ,     3.30000 ,    0.300000 ,    0.250000 ,    -3.30000  ,    1.01000 ,     0.00000 ,    0.861200E-01 , 1.00000, 
0.00000 ,     0.00000  ,    0.00000   ,   0.00000  ,    0.00000 ,     0.00000  ,    0.00000  ,    0.00000   ,   0.00000  ,    0.00000  ,  
0.00000 ,     0.00000  ,    0.00000   ,   0.00000  ,    0.00000 ,     0.00000  ,   0.00000  ,    0.00000   ,   0.00000  ,    0.00000  ,  
0.00000 ,     0.00000  ,    0.00000  ,   0 / 

18, 'GENSAL', 1,   6.00000,     0.350000E-01, 0.350000E-01,  10.00000,    3.00000,      1.40000,      1.00000,     0.210000,     0.180000,     0.120000,     0.170000,     0.550000     /
18, 'ESST1A', 1,   1, 1, 0.0,  999.000,     -999.000,     0.510000,      2.01000,      0.00000,      0.00000,      178.900, 0.290000E-01,  999.000,     -999.000,      4.48000,     -1.79000,     0.110000,      0.00000,      1.00000,      0.00000,      2.80000 /
18, 'WSIEG1', 1 ,      0, 0 ,  25.0000 ,     0.00000 ,     3.30000 ,    0.300000 ,    0.250000 ,    -3.30000  ,    1.01000 ,     0.00000 ,    0.861200E-01 , 1.00000, 
0.00000 ,     0.00000  ,    0.00000   ,   0.00000  ,    0.00000 ,     0.00000  ,    0.00000  ,    0.00000   ,   0.00000  ,    0.00000  ,  
0.00000 ,     0.00000  ,    0.00000   ,   0.00000  ,    0.00000 ,     0.00000  ,   0.00000  ,    0.00000   ,   0.00000  ,    0.00000  ,  
0.00000 ,     0.00000  ,    0.00000  ,   0 / 

82, 'GENSAL', 1,   6.00000,     0.350000E-01, 0.350000E-01,  10.00000,    3.00000,      1.40000,      1.00000,     0.210000,     0.180000,     0.120000,     0.170000,     0.550000     /
82, 'ESST1A', 1,   1, 1, 0.0,  999.000,     -999.000,     0.510000,      2.01000,      0.00000,      0.00000,      178.900, 0.290000E-01,  999.000,     -999.000,      4.48000,     -1.79000,     0.110000,      0.00000,      1.00000,      0.00000,      2.80000 /
82, 'WSIEG1', 1 ,      0, 0 ,  25.0000 ,     0.00000 ,     3.30000 ,    0.300000 ,    0.250000 ,    -3.30000  ,    1.01000 ,     0.00000 ,    0.861200E-01 , 1.00000, 
0.00000 ,     0.00000  ,    0.00000   ,   0.00000  ,    0.00000 ,     0.00000  ,    0.00000  ,    0.00000   ,   0.00000  ,    0.00000  ,  
0.00000 ,     0.00000  ,    0.00000   ,   0.00000  ,    0.00000 ,     0.00000  ,   0.00000  ,    0.00000   ,   0.00000  ,    0.00000  ,  
0.00000 ,     0.00000  ,    0.00000  ,   0 / 

125, 'GENSAL', 1,   6.00000,     0.350000E-01, 0.350000E-01,  10.00000,    3.00000,      1.40000,      1.00000,     0.210000,     0.180000,     0.120000,     0.170000,     0.550000     /
125, 'ESST1A', 1,   1, 1, 0.0,  999.000,     -999.000,     0.510000,      2.01000,      0.00000,      0.00000,      178.900, 0.290000E-01,  999.000,     -999.000,      4.48000,     -1.79000,     0.110000,      0.00000,      1.00000,      0.00000,      2.80000 /
125, 'WSIEG1', 1 ,      0, 0 ,  25.0000 ,     0.00000 ,     3.30000 ,    0.300000 ,    0.250000 ,    -3.30000  ,    1.01000 ,     0.00000 ,    0.861200E-01 , 1.00000, 
0.00000 ,     0.00000  ,    0.00000   ,   0.00000  ,    0.00000 ,     0.00000  ,    0.00000  ,    0.00000   ,   0.00000  ,    0.00000  ,  
0.00000 ,     0.00000  ,    0.00000   ,   0.00000  ,    0.00000 ,     0.00000  ,   0.00000  ,    0.00000   ,   0.00000  ,    0.00000  ,  
0.00000 ,     0.00000  ,    0.00000  ,   0 / 

126, 'GENSAL', 1,   6.00000,     0.350000E-01, 0.350000E-01,  10.00000,    3.00000,      1.40000,      1.00000,     0.210000,     0.180000,     0.120000,     0.170000,     0.550000     /
126, 'ESST1A', 1,   1, 1, 0.0,  999.000,     -999.000,     0.510000,      2.01000,      0.00000,      0.00000,      178.900, 0.290000E-01,  999.000,     -999.000,      4.48000,     -1.79000,     0.110000,      0.00000,      1.00000,      0.00000,      2.80000 /
126, 'WSIEG1', 1 ,      0, 0 ,  25.0000 ,     0.00000 ,     3.30000 ,    0.300000 ,    0.250000 ,    -3.30000  ,    1.01000 ,     0.00000 ,    0.861200E-01 , 1.00000, 
0.00000 ,     0.00000  ,    0.00000   ,   0.00000  ,    0.00000 ,     0.00000  ,    0.00000  ,    0.00000   ,   0.00000  ,    0.00000  ,  
0.00000 ,     0.00000  ,    0.00000   ,   0.00000  ,    0.00000 ,     0.00000  ,   0.00000  ,    0.00000   ,   0.00000  ,    0.00000  ,  
0.00000 ,     0.00000  ,    0.00000  ,   0 / 

127, 'GENSAL', 1,   6.00000,     0.350000E-01, 0.350000E-01,  10.00000,    3.00000,      1.40000,      1.00000,     0.210000,     0.180000,     0.120000,     0.170000,     0.550000     /
127, 'ESST1A', 1,   1, 1, 0.0,  999.000,     -999.000,     0.510000,      2.01000,      0.00000,      0.00000,      178.900, 0.290000E-01,  999.000,     -999.000,      4.48000,     -1.79000,     0.110000,      0.00000,      1.00000,      0.00000,      2.80000 /
127, 'WSIEG1', 1 ,      0, 0 ,  25.0000 ,     0.00000 ,     3.30000 ,    0.300000 ,    0.250000 ,    -3.30000  ,    1.01000 ,     0.00000 ,    0.861200E-01 , 1.00000, 
0.00000 ,     0.00000  ,    0.00000   ,   0.00000  ,    0.00000 ,     0.00000  ,    0.00000  ,    0.00000   ,   0.00000  ,    0.00000  ,  
0.00000 ,     0.00000  ,    0.00000   ,   0.00000  ,    0.00000 ,     0.00000  ,   0.00000  ,    0.00000   ,   0.00000  ,    0.00000  ,  
0.00000 ,     0.00000  ,    0.00000  ,   0 / 

128, 'GENSAL', 1,   6.00000,     0.350000E-01, 0.350000E-01,  10.00000,    3.00000,      1.40000,      1.00000,     0.210000,     0.180000,     0.120000,     0.170000,     0.550000     /
128, 'ESST1A', 1,   1, 1, 0.0,  999.000,     -999.000,     0.510000,      2.01000,      0.00000,      0.00000,      178.900, 0.290000E-01,  999.000,     -999.000,      4.48000,     -1.79000,     0.110000,      0.00000,      1.00000,      0.00000,      2.80000 /
128, 'WSIEG1', 1 ,      0, 0 ,  25.0000 ,     0.00000 ,     3.30000 ,    0.300000 ,    0.250000 ,    -3.30000  ,    1.01000 ,     0.00000 ,    0.861200E-01 , 1.00000, 
0.00000 ,     0.00000  ,    0.00000   ,   0.00000  ,    0.00000 ,     0.00000  ,    0.00000  ,    0.00000   ,   0.00000  ,    0.00000  ,  
0.00000 ,     0.00000  ,    0.00000   ,   0.00000  ,    0.00000 ,     0.00000  ,   0.00000  ,    0.00000   ,   0.00000  ,    0.00000  ,  
0.00000 ,     0.00000  ,    0.00000  ,   0 / 

144, 'GENSAL', 1,   6.00000,     0.350000E-01, 0.350000E-01,  10.00000,    3.00000,      1.40000,      1.00000,     0.210000,     0.180000,     0.120000,     0.170000,     0.550000     /
144, 'ESST1A', 1,   1, 1, 0.0,  999.000,     -999.000,     0.510000,      2.01000,      0.00000,      0.00000,      178.900, 0.290000E-01,  999.000,     -999.000,      4.48000,     -1.79000,     0.110000,      0.00000,      1.00000,      0.00000,      2.80000 /
144, 'WSIEG1', 1 ,      0, 0 ,  25.0000 ,     0.00000 ,     3.30000 ,    0.300000 ,    0.250000 ,    -3.30000  ,    1.01000 ,     0.00000 ,    0.861200E-01 , 1.00000, 
0.00000 ,     0.00000  ,    0.00000   ,   0.00000  ,    0.00000 ,     0.00000  ,    0.00000  ,    0.00000   ,   0.00000  ,    0.00000  ,  
0.00000 ,     0.00000  ,    0.00000   ,   0.00000  ,    0.00000 ,     0.00000  ,   0.00000  ,    0.00000   ,   0.00000  ,    0.00000  ,  
0.00000 ,     0.00000  ,    0.00000  ,   0 / 

145, 'GENSAL', 1,   6.00000,     0.350000E-01, 0.350000E-01,  10.00000,    3.00000,      1.40000,      1.00000,     0.210000,     0.180000,     0.120000,     0.170000,     0.550000     /
145, 'ESST1A', 1,   1, 1, 0.0,  999.000,     -999.000,     0.510000,      2.01000,      0.00000,      0.00000,      178.900, 0.290000E-01,  999.000,     -999.000,      4.48000,     -1.79000,     0.110000,      0.00000,      1.00000,      0.00000,      2.80000 /
145, 'WSIEG1', 1 ,      0, 0 ,  25.0000 ,     0.00000 ,     3.30000 ,    0.300000 ,    0.250000 ,    -3.30000  ,    1.01000 ,     0.00000 ,    0.861200E-01 , 1.00000, 
0.00000 ,     0.00000  ,    0.00000   ,   0.00000  ,    0.00000 ,     0.00000  ,    0.00000  ,    0.00000   ,   0.00000  ,    0.00000  ,  
0.00000 ,     0.00000  ,    0.00000   ,   0.00000  ,    0.00000 ,     0.00000  ,   0.00000  ,    0.00000   ,   0.00000  ,    0.00000  ,  
0.00000 ,     0.00000  ,    0.00000  ,   0 / 

167, 'GENSAL', 1,   6.00000,     0.350000E-01, 0.350000E-01,  10.00000,    3.00000,      1.40000,      1.00000,     0.210000,     0.180000,     0.120000,     0.170000,     0.550000     /
167, 'ESST1A', 1,   1, 1, 0.0,  999.000,     -999.000,     0.510000,      2.01000,      0.00000,      0.00000,      178.900, 0.290000E-01,  999.000,     -999.000,      4.48000,     -1.79000,     0.110000,      0.00000,      1.00000,      0.00000,      2.80000 /
167, 'WSIEG1', 1 ,      0, 0 ,  25.0000 ,     0.00000 ,     3.30000 ,    0.300000 ,    0.250000 ,    -3.30000  ,    1.01000 ,     0.00000 ,    0.861200E-01 , 1.00000, 
0.00000 ,     0.00000  ,    0.00000   ,   0.00000  ,    0.00000 ,     0.00000  ,    0.00000  ,    0.00000   ,   0.00000  ,    0.00000  ,  
0.00000 ,     0.00000  ,    0.00000   ,   0.00000  ,    0.00000 ,     0.00000  ,   0.00000  ,    0.00000   ,   0.00000  ,    0.00000  ,  
0.00000 ,     0.00000  ,    0.00000  ,   0 / 

168, 'GENSAL', 1,   6.00000,     0.350000E-01, 0.350000E-01,  10.00000,    3.00000,      1.40000,      1.00000,     0.210000,     0.180000,     0.120000,     0.170000,     0.550000     /
168, 'ESST1A', 1,   1, 1, 0.0,  999.000,     -999.000,     0.510000,      2.01000,      0.00000,      0.00000,      178.900, 0.290000E-01,  999.000,     -999.000,      4.48000,     -1.79000,     0.110000,      0.00000,      1.00000,      0.00000,      2.80000 /
168, 'WSIEG1', 1 ,      0, 0 ,  25.0000 ,     0.00000 ,     3.30000 ,    0.300000 ,    0.250000 ,    -3.30000  ,    1.01000 ,     0.00000 ,    0.861200E-01 , 1.00000, 
0.00000 ,     0.00000  ,    0.00000   ,   0.00000  ,    0.00000 ,     0.00000  ,    0.00000  ,    0.00000   ,   0.00000  ,    0.00000  ,  
0.00000 ,     0.00000  ,    0.00000   ,   0.00000  ,    0.00000 ,     0.00000  ,   0.00000  ,    0.00000   ,   0.00000  ,    0.00000  ,  
0.00000 ,     0.00000  ,    0.00000  ,   0 / 

169, 'GENSAL', 1,   6.00000,     0.350000E-01, 0.350000E-01,  10.00000,    3.00000,      1.40000,      1.00000,     0.210000,     0.180000,     0.120000,     0.170000,     0.550000     /
169, 'ESST1A', 1,   1, 1, 0.0,  999.000,     -999.000,     0.510000,      2.01000,      0.00000,      0.00000,      178.900, 0.290000E-01,  999.000,     -999.000,      4.48000,     -1.79000,     0.110000,      0.00000,      1.00000,      0.00000,      2.80000 /
169, 'WSIEG1', 1 ,      0, 0 ,  25.0000 ,     0.00000 ,     3.30000 ,    0.300000 ,    0.250000 ,    -3.30000  ,    1.01000 ,     0.00000 ,    0.861200E-01 , 1.00000, 
0.00000 ,     0.00000  ,    0.00000   ,   0.00000  ,    0.00000 ,     0.00000  ,    0.00000  ,    0.00000   ,   0.00000  ,    0.00000  ,  
0.00000 ,     0.00000  ,    0.00000   ,   0.00000  ,    0.00000 ,     0.00000  ,   0.00000  ,    0.00000   ,   0.00000  ,    0.00000  ,  
0.00000 ,     0.00000  ,    0.00000  ,   0 / 

197, 'GENSAL', 1,   6.00000,     0.350000E-01, 0.350000E-01,  10.00000,    3.00000,      1.40000,      1.00000,     0.210000,     0.180000,     0.120000,     0.170000,     0.550000     /
197, 'ESST1A', 1,   1, 1, 0.0,  999.000,     -999.000,     0.510000,      2.01000,      0.00000,      0.00000,      178.900, 0.290000E-01,  999.000,     -999.000,      4.48000,     -1.79000,     0.110000,      0.00000,      1.00000,      0.00000,      2.80000 /
197, 'WSIEG1', 1 ,      0, 0 ,  25.0000 ,     0.00000 ,     3.30000 ,    0.300000 ,    0.250000 ,    -3.30000  ,    1.01000 ,     0.00000 ,    0.861200E-01 , 1.00000, 
0.00000 ,     0.00000  ,    0.00000   ,   0.00000  ,    0.00000 ,     0.00000  ,    0.00000  ,    0.00000   ,   0.00000  ,    0.00000  ,  
0.00000 ,     0.00000  ,    0.00000   ,   0.00000  ,    0.00000 ,     0.00000  ,   0.00000  ,    0.00000   ,   0.00000  ,    0.00000  ,  
0.00000 ,     0.00000  ,    0.00000  ,   0 / 

198, 'GENSAL', 1,   6.00000,     0.350000E-01, 0.350000E-01,  10.00000,    3.00000,      1.40000,      1.00000,     0.210000,     0.180000,     0.120000,     0.170000,     0.550000     /
198, 'ESST1A', 1,   1, 1, 0.0,  999.000,     -999.000,     0.510000,      2.01000,      0.00000,      0.00000,      178.900, 0.290000E-01,  999.000,     -999.000,      4.48000,     -1.79000,     0.110000,      0.00000,      1.00000,      0.00000,      2.80000 /
198, 'WSIEG1', 1 ,      0, 0 ,  25.0000 ,     0.00000 ,     3.30000 ,    0.300000 ,    0.250000 ,    -3.30000  ,    1.01000 ,     0.00000 ,    0.861200E-01 , 1.00000, 
0.00000 ,     0.00000  ,    0.00000   ,   0.00000  ,    0.00000 ,     0.00000  ,    0.00000  ,    0.00000   ,   0.00000  ,    0.00000  ,  
0.00000 ,     0.00000  ,    0.00000   ,   0.00000  ,    0.00000 ,     0.00000  ,   0.00000  ,    0.00000   ,   0.00000  ,    0.00000  ,  
0.00000 ,     0.00000  ,    0.00000  ,   0 / 

224, 'GENSAL', 1,   6.00000,     0.350000E-01, 0.350000E-01,  10.00000,    3.00000,      1.40000,      1.00000,     0.210000,     0.180000,     0.120000,     0.170000,     0.550000     /
224, 'ESST1A', 1,   1, 1, 0.0,  999.000,     -999.000,     0.510000,      2.01000,      0.00000,      0.00000,      178.900, 0.290000E-01,  999.000,     -999.000,      4.48000,     -1.79000,     0.110000,      0.00000,      1.00000,      0.00000,      2.80000 /
224, 'WSIEG1', 1 ,      0, 0 ,  25.0000 ,     0.00000 ,     3.30000 ,    0.300000 ,    0.250000 ,    -3.30000  ,    1.01000 ,     0.00000 ,    0.861200E-01 , 1.00000, 
0.00000 ,     0.00000  ,    0.00000   ,   0.00000  ,    0.00000 ,     0.00000  ,    0.00000  ,    0.00000   ,   0.00000  ,    0.00000  ,  
0.00000 ,     0.00000  ,    0.00000   ,   0.00000  ,    0.00000 ,     0.00000  ,   0.00000  ,    0.00000   ,   0.00000  ,    0.00000  ,  
0.00000 ,     0.00000  ,    0.00000  ,   0 / 

225, 'GENSAL', 1,   6.00000,     0.350000E-01, 0.350000E-01,  10.00000,    3.00000,      1.40000,      1.00000,     0.210000,     0.180000,     0.120000,     0.170000,     0.550000     /
225, 'ESST1A', 1,   1, 1, 0.0,  999.000,     -999.000,     0.510000,      2.01000,      0.00000,      0.00000,      178.900, 0.290000E-01,  999.000,     -999.000,      4.48000,     -1.79000,     0.110000,      0.00000,      1.00000,      0.00000,      2.80000 /
225, 'WSIEG1', 1 ,      0, 0 ,  25.0000 ,     0.00000 ,     3.30000 ,    0.300000 ,    0.250000 ,    -3.30000  ,    1.01000 ,     0.00000 ,    0.861200E-01 , 1.00000, 
0.00000 ,     0.00000  ,    0.00000   ,   0.00000  ,    0.00000 ,     0.00000  ,    0.00000  ,    0.00000   ,   0.00000  ,    0.00000  ,  
0.00000 ,     0.00000  ,    0.00000   ,   0.00000  ,    0.00000 ,     0.00000  ,   0.00000  ,    0.00000   ,   0.00000  ,    0.00000  ,  
0.00000 ,     0.00000  ,    0.00000  ,   0 / 

248, 'GENSAL', 1,   6.00000,     0.350000E-01, 0.350000E-01,  10.00000,    3.00000,      1.40000,      1.00000,     0.210000,     0.180000,     0.120000,     0.170000,     0.550000     /
248, 'ESST1A', 1,   1, 1, 0.0,  999.000,     -999.000,     0.510000,      2.01000,      0.00000,      0.00000,      178.900, 0.290000E-01,  999.000,     -999.000,      4.48000,     -1.79000,     0.110000,      0.00000,      1.00000,      0.00000,      2.80000 /
248, 'WSIEG1', 1 ,      0, 0 ,  25.0000 ,     0.00000 ,     3.30000 ,    0.300000 ,    0.250000 ,    -3.30000  ,    1.01000 ,     0.00000 ,    0.861200E-01 , 1.00000, 
0.00000 ,     0.00000  ,    0.00000   ,   0.00000  ,    0.00000 ,     0.00000  ,    0.00000  ,    0.00000   ,   0.00000  ,    0.00000  ,  
0.00000 ,     0.00000  ,    0.00000   ,   0.00000  ,    0.00000 ,     0.00000  ,   0.00000  ,    0.00000   ,   0.00000  ,    0.00000  ,  
0.00000 ,     0.00000  ,    0.00000  ,   0 / 

249, 'GENSAL', 1,   6.00000,     0.350000E-01, 0.350000E-01,  10.00000,    3.00000,      1.40000,      1.00000,     0.210000,     0.180000,     0.120000,     0.170000,     0.550000     /
249, 'ESST1A', 1,   1, 1, 0.0,  999.000,     -999.000,     0.510000,      2.01000,      0.00000,      0.00000,      178.900, 0.290000E-01,  999.000,     -999.000,      4.48000,     -1.79000,     0.110000,      0.00000,      1.00000,      0.00000,      2.80000 /
249, 'WSIEG1', 1 ,      0, 0 ,  25.0000 ,     0.00000 ,     3.30000 ,    0.300000 ,    0.250000 ,    -3.30000  ,    1.01000 ,     0.00000 ,    0.861200E-01 , 1.00000, 
0.00000 ,     0.00000  ,    0.00000   ,   0.00000  ,    0.00000 ,     0.00000  ,    0.00000  ,    0.00000   ,   0.00000  ,    0.00000  ,  
0.00000 ,     0.00000  ,    0.00000   ,   0.00000  ,    0.00000 ,     0.00000  ,   0.00000  ,    0.00000   ,   0.00000  ,    0.00000  ,  
0.00000 ,     0.00000  ,    0.00000  ,   0 / 

250, 'GENSAL', 1,   6.00000,     0.350000E-01, 0.350000E-01,  10.00000,    3.00000,      1.40000,      1.00000,     0.210000,     0.180000,     0.120000,     0.170000,     0.550000     /
250, 'ESST1A', 1,   1, 1, 0.0,  999.000,     -999.000,     0.510000,      2.01000,      0.00000,      0.00000,      178.900, 0.290000E-01,  999.000,     -999.000,      4.48000,     -1.79000,     0.110000,      0.00000,      1.00000,      0.00000,      2.80000 /
250, 'WSIEG1', 1 ,      0, 0 ,  25.0000 ,     0.00000 ,     3.30000 ,    0.300000 ,    0.250000 ,    -3.30000  ,    1.01000 ,     0.00000 ,    0.861200E-01 , 1.00000, 
0.00000 ,     0.00000  ,    0.00000   ,   0.00000  ,    0.00000 ,     0.00000  ,    0.00000  ,    0.00000   ,   0.00000  ,    0.00000  ,  
0.00000 ,     0.00000  ,    0.00000   ,   0.00000  ,    0.00000 ,     0.00000  ,   0.00000  ,    0.00000   ,   0.00000  ,    0.00000  ,  
0.00000 ,     0.00000  ,    0.00000  ,   0 / 

275, 'GENSAL', 1,   6.00000,     0.350000E-01, 0.350000E-01,  10.00000,    3.00000,      1.40000,      1.00000,     0.210000,     0.180000,     0.120000,     0.170000,     0.550000     /
275, 'ESST1A', 1,   1, 1, 0.0,  999.000,     -999.000,     0.510000,      2.01000,      0.00000,      0.00000,      178.900, 0.290000E-01,  999.000,     -999.000,      4.48000,     -1.79000,     0.110000,      0.00000,      1.00000,      0.00000,      2.80000 /
275, 'WSIEG1', 1 ,      0, 0 ,  25.0000 ,     0.00000 ,     3.30000 ,    0.300000 ,    0.250000 ,    -3.30000  ,    1.01000 ,     0.00000 ,    0.861200E-01 , 1.00000, 
0.00000 ,     0.00000  ,    0.00000   ,   0.00000  ,    0.00000 ,     0.00000  ,    0.00000  ,    0.00000   ,   0.00000  ,    0.00000  ,  
0.00000 ,     0.00000  ,    0.00000   ,   0.00000  ,    0.00000 ,     0.00000  ,   0.00000  ,    0.00000   ,   0.00000  ,    0.00000  ,  
0.00000 ,     0.00000  ,    0.00000  ,   0 / 

319, 'GENSAL', 1,   6.00000,     0.350000E-01, 0.350000E-01,  10.00000,    3.00000,      1.40000,      1.00000,     0.210000,     0.180000,     0.120000,     0.170000,     0.550000     /
319, 'ESST1A', 1,   1, 1, 0.0,  999.000,     -999.000,     0.510000,      2.01000,      0.00000,      0.00000,      178.900, 0.290000E-01,  999.000,     -999.000,      4.48000,     -1.79000,     0.110000,      0.00000,      1.00000,      0.00000,      2.80000 /
319, 'WSIEG1', 1 ,      0, 0 ,  25.0000 ,     0.00000 ,     3.30000 ,    0.300000 ,    0.250000 ,    -3.30000  ,    1.01000 ,     0.00000 ,    0.861200E-01 , 1.00000, 
0.00000 ,     0.00000  ,    0.00000   ,   0.00000  ,    0.00000 ,     0.00000  ,    0.00000  ,    0.00000   ,   0.00000  ,    0.00000  ,  
0.00000 ,     0.00000  ,    0.00000   ,   0.00000  ,    0.00000 ,     0.00000  ,   0.00000  ,    0.00000   ,   0.00000  ,    0.00000  ,  
0.00000 ,     0.00000  ,    0.00000  ,   0 / 

353, 'GENSAL', 1,   6.00000,     0.350000E-01, 0.350000E-01,  10.00000,    3.00000,      1.40000,      1.00000,     0.210000,     0.180000,     0.120000,     0.170000,     0.550000     /
353, 'ESST1A', 1,   1, 1, 0.0,  999.000,     -999.000,     0.510000,      2.01000,      0.00000,      0.00000,      178.900, 0.290000E-01,  999.000,     -999.000,      4.48000,     -1.79000,     0.110000,      0.00000,      1.00000,      0.00000,      2.80000 /
353, 'WSIEG1', 1 ,      0, 0 ,  25.0000 ,     0.00000 ,     3.30000 ,    0.300000 ,    0.250000 ,    -3.30000  ,    1.01000 ,     0.00000 ,    0.861200E-01 , 1.00000, 
0.00000 ,     0.00000  ,    0.00000   ,   0.00000  ,    0.00000 ,     0.00000  ,    0.00000  ,    0.00000   ,   0.00000  ,    0.00000  ,  
0.00000 ,     0.00000  ,    0.00000   ,   0.00000  ,    0.00000 ,     0.00000  ,   0.00000  ,    0.00000   ,   0.00000  ,    0.00000  ,  
0.00000 ,     0.00000  ,    0.00000  ,   0 / 

389, 'GENSAL', 1,   6.00000,     0.350000E-01, 0.350000E-01,  10.00000,    3.00000,      1.40000,      1.00000,     0.210000,     0.180000,     0.120000,     0.170000,     0.550000     /
389, 'ESST1A', 1,   1, 1, 0.0,  999.000,     -999.000,     0.510000,      2.01000,      0.00000,      0.00000,      178.900, 0.290000E-01,  999.000,     -999.000,      4.48000,     -1.79000,     0.110000,      0.00000,      1.00000,      0.00000,      2.80000 /
389, 'WSIEG1', 1 ,      0, 0 ,  25.0000 ,     0.00000 ,     3.30000 ,    0.300000 ,    0.250000 ,    -3.30000  ,    1.01000 ,     0.00000 ,    0.861200E-01 , 1.00000, 
0.00000 ,     0.00000  ,    0.00000   ,   0.00000  ,    0.00000 ,     0.00000  ,    0.00000  ,    0.00000   ,   0.00000  ,    0.00000  ,  
0.00000 ,     0.00000  ,    0.00000   ,   0.00000  ,    0.00000 ,     0.00000  ,   0.00000  ,    0.00000   ,   0.00000  ,    0.00000  ,  
0.00000 ,     0.00000  ,    0.00000  ,   0 / 

390, 'GENSAL', 1,   6.00000,     0.350000E-01, 0.350000E-01,  10.00000,    3.00000,      1.40000,      1.00000,     0.210000,     0.180000,     0.120000,     0.170000,     0.550000     /
390, 'ESST1A', 1,   1, 1, 0.0,  999.000,     -999.000,     0.510000,      2.01000,      0.00000,      0.00000,      178.900, 0.290000E-01,  999.000,     -999.000,      4.48000,     -1.79000,     0.110000,      0.00000,      1.00000,      0.00000,      2.80000 /
390, 'WSIEG1', 1 ,      0, 0 ,  25.0000 ,     0.00000 ,     3.30000 ,    0.300000 ,    0.250000 ,    -3.30000  ,    1.01000 ,     0.00000 ,    0.861200E-01 , 1.00000, 
0.00000 ,     0.00000  ,    0.00000   ,   0.00000  ,    0.00000 ,     0.00000  ,    0.00000  ,    0.00000   ,   0.00000  ,    0.00000  ,  
0.00000 ,     0.00000  ,    0.00000   ,   0.00000  ,    0.00000 ,     0.00000  ,   0.00000  ,    0.00000   ,   0.00000  ,    0.00000  ,  
0.00000 ,     0.00000  ,    0.00000  ,   0 / 

391, 'GENSAL', 1,   6.00000,     0.350000E-01, 0.350000E-01,  10.00000,    3.00000,      1.40000,      1.00000,     0.210000,     0.180000,     0.120000,     0.170000,     0.550000     /
391, 'ESST1A', 1,   1, 1, 0.0,  999.000,     -999.000,     0.510000,      2.01000,      0.00000,      0.00000,      178.900, 0.290000E-01,  999.000,     -999.000,      4.48000,     -1.79000,     0.110000,      0.00000,      1.00000,      0.00000,      2.80000 /
391, 'WSIEG1', 1 ,      0, 0 ,  25.0000 ,     0.00000 ,     3.30000 ,    0.300000 ,    0.250000 ,    -3.30000  ,    1.01000 ,     0.00000 ,    0.861200E-01 , 1.00000, 
0.00000 ,     0.00000  ,    0.00000   ,   0.00000  ,    0.00000 ,     0.00000  ,    0.00000  ,    0.00000   ,   0.00000  ,    0.00000  ,  
0.00000 ,     0.00000  ,    0.00000   ,   0.00000  ,    0.00000 ,     0.00000  ,   0.00000  ,    0.00000   ,   0.00000  ,    0.00000  ,  
0.00000 ,     0.00000  ,    0.00000  ,   0 / 

392, 'GENSAL', 1,   6.00000,     0.350000E-01, 0.350000E-01,  10.00000,    3.00000,      1.40000,      1.00000,     0.210000,     0.180000,     0.120000,     0.170000,     0.550000     /
392, 'ESST1A', 1,   1, 1, 0.0,  999.000,     -999.000,     0.510000,      2.01000,      0.00000,      0.00000,      178.900, 0.290000E-01,  999.000,     -999.000,      4.48000,     -1.79000,     0.110000,      0.00000,      1.00000,      0.00000,      2.80000 /
392, 'WSIEG1', 1 ,      0, 0 ,  25.0000 ,     0.00000 ,     3.30000 ,    0.300000 ,    0.250000 ,    -3.30000  ,    1.01000 ,     0.00000 ,    0.861200E-01 , 1.00000, 
0.00000 ,     0.00000  ,    0.00000   ,   0.00000  ,    0.00000 ,     0.00000  ,    0.00000  ,    0.00000   ,   0.00000  ,    0.00000  ,  
0.00000 ,     0.00000  ,    0.00000   ,   0.00000  ,    0.00000 ,     0.00000  ,   0.00000  ,    0.00000   ,   0.00000  ,    0.00000  ,  
0.00000 ,     0.00000  ,    0.00000  ,   0 / 

393, 'GENSAL', 1,   6.00000,     0.350000E-01, 0.350000E-01,  10.00000,    3.00000,      1.40000,      1.00000,     0.210000,     0.180000,     0.120000,     0.170000,     0.550000     /
393, 'ESST1A', 1,   1, 1, 0.0,  999.000,     -999.000,     0.510000,      2.01000,      0.00000,      0.00000,      178.900, 0.290000E-01,  999.000,     -999.000,      4.48000,     -1.79000,     0.110000,      0.00000,      1.00000,      0.00000,      2.80000 /
393, 'WSIEG1', 1 ,      0, 0 ,  25.0000 ,     0.00000 ,     3.30000 ,    0.300000 ,    0.250000 ,    -3.30000  ,    1.01000 ,     0.00000 ,    0.861200E-01 , 1.00000, 
0.00000 ,     0.00000  ,    0.00000   ,   0.00000  ,    0.00000 ,     0.00000  ,    0.00000  ,    0.00000   ,   0.00000  ,    0.00000  ,  
0.00000 ,     0.00000  ,    0.00000   ,   0.00000  ,    0.00000 ,     0.00000  ,   0.00000  ,    0.00000   ,   0.00000  ,    0.00000  ,  
0.00000 ,     0.00000  ,    0.00000  ,   0 / 

394, 'GENSAL', 1,   6.00000,     0.350000E-01, 0.350000E-01,  10.00000,    3.00000,      1.40000,      1.00000,     0.210000,     0.180000,     0.120000,     0.170000,     0.550000     /
394, 'ESST1A', 1,   1, 1, 0.0,  999.000,     -999.000,     0.510000,      2.01000,      0.00000,      0.00000,      178.900, 0.290000E-01,  999.000,     -999.000,      4.48000,     -1.79000,     0.110000,      0.00000,      1.00000,      0.00000,      2.80000 /
394, 'WSIEG1', 1 ,      0, 0 ,  25.0000 ,     0.00000 ,     3.30000 ,    0.300000 ,    0.250000 ,    -3.30000  ,    1.01000 ,     0.00000 ,    0.861200E-01 , 1.00000, 
0.00000 ,     0.00000  ,    0.00000   ,   0.00000  ,    0.00000 ,     0.00000  ,    0.00000  ,    0.00000   ,   0.00000  ,    0.00000  ,  
0.00000 ,     0.00000  ,    0.00000   ,   0.00000  ,    0.00000 ,     0.00000  ,   0.00000  ,    0.00000   ,   0.00000  ,    0.00000  ,  
0.00000 ,     0.00000  ,    0.00000  ,   0 / 

395, 'GENSAL', 1,   6.00000,     0.350000E-01, 0.350000E-01,  10.00000,    3.00000,      1.40000,      1.00000,     0.210000,     0.180000,     0.120000,     0.170000,     0.550000     /
395, 'ESST1A', 1,   1, 1, 0.0,  999.000,     -999.000,     0.510000,      2.01000,      0.00000,      0.00000,      178.900, 0.290000E-01,  999.000,     -999.000,      4.48000,     -1.79000,     0.110000,      0.00000,      1.00000,      0.00000,      2.80000 /
395, 'WSIEG1', 1 ,      0, 0 ,  25.0000 ,     0.00000 ,     3.30000 ,    0.300000 ,    0.250000 ,    -3.30000  ,    1.01000 ,     0.00000 ,    0.861200E-01 , 1.00000, 
0.00000 ,     0.00000  ,    0.00000   ,   0.00000  ,    0.00000 ,     0.00000  ,    0.00000  ,    0.00000   ,   0.00000  ,    0.00000  ,  
0.00000 ,     0.00000  ,    0.00000   ,   0.00000  ,    0.00000 ,     0.00000  ,   0.00000  ,    0.00000   ,   0.00000  ,    0.00000  ,  
0.00000 ,     0.00000  ,    0.00000  ,   0 / 

396, 'GENSAL', 1,   6.00000,     0.350000E-01, 0.350000E-01,  10.00000,    3.00000,      1.40000,      1.00000,     0.210000,     0.180000,     0.120000,     0.170000,     0.550000     /
396, 'ESST1A', 1,   1, 1, 0.0,  999.000,     -999.000,     0.510000,      2.01000,      0.00000,      0.00000,      178.900, 0.290000E-01,  999.000,     -999.000,      4.48000,     -1.79000,     0.110000,      0.00000,      1.00000,      0.00000,      2.80000 /
396, 'WSIEG1', 1 ,      0, 0 ,  25.0000 ,     0.00000 ,     3.30000 ,    0.300000 ,    0.250000 ,    -3.30000  ,    1.01000 ,     0.00000 ,    0.861200E-01 , 1.00000, 
0.00000 ,     0.00000  ,    0.00000   ,   0.00000  ,    0.00000 ,     0.00000  ,    0.00000  ,    0.00000   ,   0.00000  ,    0.00000  ,  