1,'GENROU',1 ,  7.0,   0.03,   0.75,   0.05,  3.0,  0.0,   2.1, 2.0,  0.2,   0.5,  0.18,  0.15, 0.67000E-01,  0.57900 /
2,'GENROU',1 ,  7.0,   0.03,   0.75,   0.05,  3.0,  0.0,   2.1, 2.0,  0.2,   0.5,  0.18,  0.15, 0.67000E-01,  0.57900 /
3,'GENROU',1 ,  7.0,   0.03,   0.75,   0.05,  3.0,  0.0,   2.1, 2.0,  0.2,   0.5,  0.18,  0.15, 0.67000E-01,  0.57900 /
1 'TGOV1'  '1 '   0.80000E-01   2.0000       1.0000       0.0000
          3.0000       15.000      0.40000      /
2 'TGOV1'  '1 '   0.80000E-01   2.0000       1.0000       0.0000
          3.0000       15.000      0.40000      /
3 'TGOV1'  '1 '   0.80000E-01   2.0000       1.0000       0.0000
          3.0000       15.000      0.40000      /