1,'GENROU',1 ,  7.0,   0.03,   0.75,   0.05,  30.0,  10.0,   2.1, 2.0,  0.2,   0.5,  0.18,  0.15, 0.67000E-01,  0.57900 /
2,'GENROU',1 ,  7.0,   0.03,   0.75,   0.05,  30.0,  10.0,   2.1, 2.0,  0.2,   0.5,  0.18,  0.15, 0.67000E-01,  0.57900 /
1, 'IEEET1', 1,    0.16668E-01,   68.600,      0.20000E-01, 7.4500,      -7.4500,       1.0000,       3.8700,
0.10000,       1.0000,       0.0000,       3.4000,       1.0700,
4.6000,       1.2000    /
2, 'IEEET1', 1,    0.16668E-01,   68.600,      0.20000E-01, 7.4500,      -7.4500,       1.0000,       3.8700,
0.10000,       1.0000,       0.0000,       3.4000,       1.0700,
4.6000,       1.2000    /
1 'TGOV1'  '1 '   0.80000E-01   2.0000       1.0000       0.0000
          3.0000       15.000      0.40000      /
2 'TGOV1'  '1 '   0.80000E-01   2.0000       1.0000       0.0000
          3.0000       15.000      0.40000      /
3    'GDFORM' 1    0.017    0.000    1.860    0.010   0.005    0.100    1.000    0.000   1.200    0.000    0.010    2.000   1.000   -1.000    3.000   20.000   0.010    0.010    1.000 /
