1 'GENROU' '1 '     6.0000      0.50000       1.0000      0.50000E-01
       2.4100       0.0000       1.4000       1.3500      0.30000
       0.60000      0.20000      0.10000      0.30000E-01  0.40000      /
1 'ESST1A' 1     1    1        0.05   999.000      -999.000      0.510000
         2.01000       0.00000       0.05       178.900  0.290000E-01
         999.000      -999.000       4.48000      -1.79000      0.110000
         0.00000       1.00000       0.00000       2.80000 /
2 'GENROU' '1 '     6.0000      0.50000       1.0000      0.50000E-01
       2.4100       0.0000       1.4000       1.3500      0.30000
       0.60000      0.20000      0.10000      0.30000E-01  0.40000      /
2 'ESST1A' 1     1    1        0.05   999.000      -999.000      0.510000
         2.01000       0.00000       0.05       178.900  0.290000E-01
         999.000      -999.000       4.48000      -1.79000      0.110000
         0.00000       1.00000       0.00000       2.80000 /
3 'GENROU' '1 '     6.0000      0.50000       1.0000      0.50000E-01
       2.4100       0.0000       1.4000       1.3500      0.30000
       0.60000      0.20000      0.10000      0.30000E-01  0.40000      /
3 'ESST1A' 1     1    1        0.05   999.000      -999.000      0.510000
         2.01000       0.00000       0.05       178.900  0.290000E-01
         999.000      -999.000       4.48000      -1.79000      0.110000
         0.00000       1.00000       0.00000       2.80000 /

