1 'GENROU' '1 '     6.0000      0.50000       1.0000      0.50000E-01
       2.4100       0.0000       1.4000       1.3500      0.30000
       0.60000      0.20000      0.10000      0.30000E-01  0.40000      /
1 'SEXS'   '1 '    0.10000       10.000       100.00      0.10000
          0.0000       3.0000      /
2 'GENROU' '1 '     6.0000      0.50000       1.0000      0.50000E-01
       2.4100       0.0000       1.4000       1.3500      0.30000
       0.60000      0.20000      0.10000      0.30000E-01  0.40000      /
2 'SEXS'   '1 '    0.10000       10.000       100.00      0.10000
          0.0000       3.0000      /
3 'GENROU' '1 '     6.0000      0.50000       1.0000      0.50000E-01
       2.4100       0.0000       1.4000       1.3500      0.30000
       0.60000      0.20000      0.10000      0.30000E-01  0.40000      /
3 'SEXS'   '1 '    0.10000       10.000       100.00      0.10000
          0.0000       3.0000      /

