1 'GENROU' '1 '     6.0000      0.50000       1.0000      0.50000E-01
       2.4100       0.0000       1.4000       1.3500      0.30000
       0.60000      0.20000      0.10000      0.30000E-01  0.40000      /
1 'ESST4B' 1     0.05   10.75      10.75      1.0      -0.87
         0.02       1.0       0.05       99.0     -99.0
         0.0      9.3       0.05      11.63     0.113
         0.124       0.0 /
2 'GENROU' '1 '     6.0000      0.50000       1.0000      0.50000E-01
       2.4100       0.0000       1.4000       1.3500      0.30000
       0.60000      0.20000      0.10000      0.30000E-01  0.40000      /
2 'ESST4B' 1     0.05   10.75      10.75      1.0      -0.87
         0.02       1.0       0.05       99.0     -99.0
         0.0      9.3       0.05      11.63     0.113
         0.124       0.0 /
3 'GENROU' '1 '     6.0000      0.50000       1.0000      0.50000E-01
       2.4100       0.0000       1.4000       1.3500      0.30000
       0.60000      0.20000      0.10000      0.30000E-01  0.40000      /
3 'ESST4B' 1     0.05   10.75      10.75      1.0      -0.87
         0.02       1.0       0.05       99.0     -99.0
         0.0      9.3       0.05      11.63     0.113
         0.124       0.0 /
