1,'GENROU',1 ,  7.0,   0.03,   0.75,   0.05,  30.0,  10.0,   2.1, 2.0,  0.2,   0.5,  0.18,  0.15, 0.67000E-01,  0.57900 /
2,'GENROU',1 ,  7.0,   0.03,   0.75,   0.05,  30.0,  10.0,   2.1, 2.0,  0.2,   0.5,  0.18,  0.15, 0.67000E-01,  0.57900 /
1, 'IEEET1', 1,    0.16668E-01,   68.600,      0.20000E-01, 7.4500,      -7.4500,       1.0000,       3.8700,
0.10000,       1.0000,       0.0000,       3.4000,       1.0700,
4.6000,       1.2000    /
2, 'IEEET1', 1,    0.16668E-01,   68.600,      0.20000E-01, 7.4500,      -7.4500,       1.0000,       3.8700,
0.10000,       1.0000,       0.0000,       3.4000,       1.0700,
4.6000,       1.2000    /
1 'TGOV1'  '1 '   0.80000E-01   2.0000       1.0000       0.0000
          3.0000       15.000      0.40000      /
2 'TGOV1'  '1 '   0.80000E-01   2.0000       1.0000       0.0000
          3.0000       15.000      0.40000      /
3 'REGCA1' 1        1
         0.20000E-01   10.000      0.90000      0.40000       1.2200
          1.2000      0.90000      0.50000      -1.3000      0.20000E-01
          0.0000       100.00      -100.00      0.70000      /
3 'REECA1' 1
             0          0            1       0       0       0
        -99         99          0.02     0.0     0.0
        0.0          1.1000   -1.0000    0.0     0.0
        0.0         0.0         0.05     0.44   -0.44
	1.05        0.9         0.0      0.01    10
	60          0           0.02     99      -99
	1           0           1.11     0.02    -1
	1           2           1        0        0
	0           0          -1        1        2
	1           0           0        0        0   /
3 'REPCA1' 1
             0           0           0    '0 '        0       0       1
         0.20000E-01      18.000          5.0000          0.0000         0.50000E-01
          0.0000          0.0000          0.0000         0.20000E-01     0.10000
        -0.10000         -1.0000          1.0000         0.43000        -0.43000
          1.0000         0.50000E-01     0.25000         -1.0000          1.0000
          99.000         -99.000          1.0000          0.0000         0.10000
          0.0000          0.0000      /