1, 'GENCLS', '1 ',  8.000000,   5.000000,  0.050000 /
2, 'GENCLS', '1 ',  8.000000,   5.000000,  0.050000 /
3, 'GENCLS', '1 ',  8.000000,   5.000000,  0.050000 /
