1, 'GENSAL', 1,   7.00000,     0.300000E-01, 0.350000E-01,  2.00000,     1.00000,      1.20000,      0.80000,     0.22000,      0.200000,     0.160000,     0.050000,     0.30000      /
2, 'GENSAL', 1,   7.00000,     0.300000E-01, 0.350000E-01,  2.00000,     1.00000,      1.20000,      0.80000,     0.220000,     0.200000,     0.160000,     0.050000,     0.300000     /
3, 'GENSAL', 1,   7.00000,     0.300000E-01, 0.350000E-01,  2.00000,     1.00000,      1.20000,      0.80000,     0.220000,     0.200000,     0.160000,     0.050000,     0.300000     /
6, 'GENSAL', 1,   7.00000,     0.300000E-01, 0.350000E-01,  2.00000,     1.00000,      1.20000,      0.80000,     0.220000,     0.200000,     0.160000,     0.050000,     0.300000     /
8, 'GENSAL', 1,   7.00000,     0.300000E-01, 0.350000E-01,  2.00000,     1.00000,      1.20000,      0.80000,     0.220000,     0.200000,     0.160000,     0.050000,     0.300000     /

1, 'EXDC1' ,1,0.0,40.0,0.1,0.0,0.0,1.0,-1.0,0.1,0.5,0.05,0.7,0.0,2.8,0.08,3.7,0.33 /
2, 'EXDC1' ,1,0.0,40.0,0.1,0.0,0.0,1.0,-1.0,0.1,0.5,0.05,0.7,0.0,2.8,0.08,3.7,0.33 /
3, 'EXDC1' ,1,0.0,40.0,0.1,0.0,0.0,1.0,-1.0,0.1,0.5,0.05,0.7,0.0,2.8,0.08,3.7,0.33 /
6, 'EXDC1' ,1,0.0,40.0,0.1,0.0,0.0,1.0,-1.0,0.1,0.5,0.05,0.7,0.0,2.8,0.08,3.7,0.33 /
8, 'EXDC1' ,1,0.0,40.0,0.1,0.0,0.0,1.0,-1.0,0.1,0.5,0.05,0.7,0.0,2.8,0.08,3.7,0.33 /

1, 'WSIEG1' ,1 , 0, 0, 10.0, 0.0, 0.0, 0.8, 1.0, -10.0, 1.01,  0.0, 1.2, 0.3, 0.0, 10.0, 0.2, 0.0, 1.6, 0.5, 0.0, 0.0, 0.0, 0.0, 0.0, 0.0, 0.0, 0.0, 0.0, 0.0, 0.0, 0.0, 0.0, 0.0, 0.0, 0.0, 0.0, 0 / 
2, 'WSIEG1' ,1 , 0, 0, 10.0, 0.0, 0.0, 0.8, 1.0, -10.0, 1.01,  0.0, 1.2, 0.3, 0.0, 10.0, 0.2, 0.0, 1.6, 0.5, 0.0, 0.0, 0.0, 0.0, 0.0, 0.0, 0.0, 0.0, 0.0, 0.0, 0.0, 0.0, 0.0, 0.0, 0.0, 0.0, 0.0, 0 / 
3, 'WSIEG1' ,1 , 0, 0, 10.0, 0.0, 0.0, 0.8, 1.0, -10.0, 1.01,  0.0, 1.2, 0.3, 0.0, 10.0, 0.2, 0.0, 1.6, 0.5, 0.0, 0.0, 0.0, 0.0, 0.0, 0.0, 0.0, 0.0, 0.0, 0.0, 0.0, 0.0, 0.0, 0.0, 0.0, 0.0, 0.0, 0 / 
6, 'WSIEG1' ,1 , 0, 0, 10.0, 0.0, 0.0, 0.8, 1.0, -10.0, 1.01,  0.0, 1.2, 0.3, 0.0, 10.0, 0.2, 0.0, 1.6, 0.5, 0.0, 0.0, 0.0, 0.0, 0.0, 0.0, 0.0, 0.0, 0.0, 0.0, 0.0, 0.0, 0.0, 0.0, 0.0, 0.0, 0.0, 0 / 
8, 'WSIEG1' ,1 , 0, 0, 10.0, 0.0, 0.0, 0.8, 1.0, -10.0, 1.01,  0.0, 1.2, 0.3, 0.0, 10.0, 0.2, 0.0, 1.6, 0.5, 0.0, 0.0, 0.0, 0.0, 0.0, 0.0, 0.0, 0.0, 0.0, 0.0, 0.0, 0.0, 0.0, 0.0, 0.0, 0.0, 0.0, 0 / 