30, 'GENSAL', 1,   7.00000,     0.300000E-01, 0.350000E-01,  3.00000,     1.00000,      1.20000,      0.80000,     0.22000,      0.200000,     0.160000,     0.050000,     0.30000      /
31, 'GENSAL', 1,   7.00000,     0.300000E-01, 0.350000E-01,  3.00000,     1.00000,      1.20000,      0.80000,     0.220000,     0.200000,     0.160000,     0.050000,     0.300000     /
32, 'GENSAL', 1,   7.00000,     0.300000E-01, 0.350000E-01,  3.00000,     1.00000,      1.20000,      0.80000,     0.220000,     0.200000,     0.160000,     0.050000,     0.300000     /
33, 'GENSAL', 1,   7.00000,     0.300000E-01, 0.350000E-01,  3.00000,     1.00000,      1.20000,      0.80000,     0.220000,     0.200000,     0.160000,     0.050000,     0.300000     /
34, 'GENSAL', 1,   7.00000,     0.300000E-01, 0.350000E-01,  3.00000,     1.00000,      1.20000,      0.80000,     0.220000,     0.200000,     0.160000,     0.050000,     0.300000     /
35, 'GENSAL', 1,   7.00000,     0.300000E-01, 0.350000E-01,  3.00000,     1.00000,      1.20000,      0.80000,     0.220000,     0.200000,     0.160000,     0.050000,     0.300000     /
36, 'GENSAL', 1,   7.00000,     0.300000E-01, 0.350000E-01,  3.00000,     1.00000,      1.20000,      0.80000,     0.220000,     0.200000,     0.160000,     0.050000,     0.300000     /
37, 'GENSAL', 1,   7.00000,     0.300000E-01, 0.350000E-01,  3.00000,     1.00000,      1.20000,      0.80000,     0.220000,     0.200000,     0.160000,     0.050000,     0.300000     /
38, 'GENSAL', 1,   7.00000,     0.300000E-01, 0.350000E-01,  3.00000,     1.00000,      1.20000,      0.80000,     0.220000,     0.200000,     0.160000,     0.050000,     0.300000     /
39, 'GENSAL', 1,   7.00000,     0.300000E-01, 0.350000E-01,  3.00000,     1.00000,      1.20000,      0.80000,     0.220000,     0.200000,     0.160000,     0.050000,     0.300000     /


30, 'EXDC1' ,1,0.0,40.0,0.1,0.0,0.0,1.0,-1.0,0.1,0.5,0.05,0.7,0.0,2.8,0.08,3.7,0.33 /
31, 'EXDC1' ,1,0.0,40.0,0.1,0.0,0.0,1.0,-1.0,0.1,0.5,0.05,0.7,0.0,2.8,0.08,3.7,0.33 /
32, 'EXDC1' ,1,0.0,40.0,0.1,0.0,0.0,1.0,-1.0,0.1,0.5,0.05,0.7,0.0,2.8,0.08,3.7,0.33 /
33, 'EXDC1' ,1,0.0,40.0,0.1,0.0,0.0,1.0,-1.0,0.1,0.5,0.05,0.7,0.0,2.8,0.08,3.7,0.33 /
34, 'EXDC1' ,1,0.0,40.0,0.1,0.0,0.0,1.0,-1.0,0.1,0.5,0.05,0.7,0.0,2.8,0.08,3.7,0.33 /
35, 'EXDC1' ,1,0.0,40.0,0.1,0.0,0.0,1.0,-1.0,0.1,0.5,0.05,0.7,0.0,2.8,0.08,3.7,0.33 /
36, 'EXDC1' ,1,0.0,40.0,0.1,0.0,0.0,1.0,-1.0,0.1,0.5,0.05,0.7,0.0,2.8,0.08,3.7,0.33 /
37, 'EXDC1' ,1,0.0,40.0,0.1,0.0,0.0,1.0,-1.0,0.1,0.5,0.05,0.7,0.0,2.8,0.08,3.7,0.33 /
38, 'EXDC1' ,1,0.0,40.0,0.1,0.0,0.0,1.0,-1.0,0.1,0.5,0.05,0.7,0.0,2.8,0.08,3.7,0.33 /
39, 'EXDC1' ,1,0.0,40.0,0.1,0.0,0.0,1.0,-1.0,0.1,0.5,0.05,0.7,0.0,2.8,0.08,3.7,0.33 /

30, 'WSIEG1' ,1,0,0,25.0,0.0,0.0,0.1,1.0,-10.0,1.01,0.0,0.3,1.0,0.0,0.0,0.0,0.0,0.0,0.0,0.0,0.0,0.0,0.0,0.0,0.0,0.0,0.0,0.0,0.0,0.0,0.0,0.0,0.0,0.0,0.0,0.0,0 /
31, 'WSIEG1' ,1,0,0,25.0,0.0,0.0,0.1,1.0,-10.0,1.01,0.0,0.3,1.0,0.0,0.0,0.0,0.0,0.0,0.0,0.0,0.0,0.0,0.0,0.0,0.0,0.0,0.0,0.0,0.0,0.0,0.0,0.0,0.0,0.0,0.0,0.0,0 /
32, 'WSIEG1' ,1,0,0,25.0,0.0,0.0,0.1,1.0,-10.0,1.01,0.0,0.3,1.0,0.0,0.0,0.0,0.0,0.0,0.0,0.0,0.0,0.0,0.0,0.0,0.0,0.0,0.0,0.0,0.0,0.0,0.0,0.0,0.0,0.0,0.0,0.0,0 /
33, 'WSIEG1' ,1,0,0,25.0,0.0,0.0,0.1,1.0,-10.0,1.01,0.0,0.3,1.0,0.0,0.0,0.0,0.0,0.0,0.0,0.0,0.0,0.0,0.0,0.0,0.0,0.0,0.0,0.0,0.0,0.0,0.0,0.0,0.0,0.0,0.0,0.0,0 /
34, 'WSIEG1' ,1,0,0,25.0,0.0,0.0,0.1,1.0,-10.0,1.01,0.0,0.3,1.0,0.0,0.0,0.0,0.0,0.0,0.0,0.0,0.0,0.0,0.0,0.0,0.0,0.0,0.0,0.0,0.0,0.0,0.0,0.0,0.0,0.0,0.0,0.0,0 /
35, 'WSIEG1' ,1,0,0,25.0,0.0,0.0,0.1,1.0,-10.0,1.01,0.0,0.3,1.0,0.0,0.0,0.0,0.0,0.0,0.0,0.0,0.0,0.0,0.0,0.0,0.0,0.0,0.0,0.0,0.0,0.0,0.0,0.0,0.0,0.0,0.0,0.0,0 /
36, 'WSIEG1' ,1,0,0,25.0,0.0,0.0,0.1,1.0,-10.0,1.01,0.0,0.3,1.0,0.0,0.0,0.0,0.0,0.0,0.0,0.0,0.0,0.0,0.0,0.0,0.0,0.0,0.0,0.0,0.0,0.0,0.0,0.0,0.0,0.0,0.0,0.0,0 /
37, 'WSIEG1' ,1,0,0,25.0,0.0,0.0,0.1,1.0,-10.0,1.01,0.0,0.3,1.0,0.0,0.0,0.0,0.0,0.0,0.0,0.0,0.0,0.0,0.0,0.0,0.0,0.0,0.0,0.0,0.0,0.0,0.0,0.0,0.0,0.0,0.0,0.0,0 /
38, 'WSIEG1' ,1,0,0,25.0,0.0,0.0,0.1,1.0,-10.0,1.01,0.0,0.3,1.0,0.0,0.0,0.0,0.0,0.0,0.0,0.0,0.0,0.0,0.0,0.0,0.0,0.0,0.0,0.0,0.0,0.0,0.0,0.0,0.0,0.0,0.0,0.0,0 /
39, 'WSIEG1' ,1,0,0,25.0,0.0,0.0,0.1,1.0,-10.0,1.01,0.0,0.3,1.0,0.0,0.0,0.0,0.0,0.0,0.0,0.0,0.0,0.0,0.0,0.0,0.0,0.0,0.0,0.0,0.0,0.0,0.0,0.0,0.0,0.0,0.0,0.0,0 /
    


