0,   100.00, 33, 0, 1, 60.00     / PSS(R)E-33.5    TUE, DEC 16 2014  11:59
IEEE 118 BUS TEST CASE

     1,'RIVERSID    ',   1.0000,2,   1,   1,   1,0.95701,  10.9735,1.10000,0.90000,1.10000,0.90000
     2,'POKAGON     ', 138.0000,1,   1,   1,   1,0.97216,  11.5290,1.10000,0.90000,1.10000,0.90000
     3,'HICKORYC    ',   1.0000,1,   1,   1,   1,0.96882,  11.8714,1.10000,0.90000,1.10000,0.90000
     4,'NCARLISL    ',   1.0000,2,   1,   1,   1,0.99800,  15.6084,1.10000,0.90000,1.10000,0.90000
     5,'OLIVE       ', 138.0000,1,   1,   1,   1,1.00161,  16.0590,1.10000,0.90000,1.10000,0.90000
     6,'KANKAKEE    ', 138.0000,2,   1,   1,   1,0.98540,  13.3786,1.10000,0.90000,1.10000,0.90000
     7,'JACKSONR    ',   1.0000,1,   1,   1,   1,0.98647,  12.9112,1.10000,0.90000,1.10000,0.90000
     8,'OLIVE       ', 345.0000,2,   1,   1,   1,1.01500,  21.0841,1.10000,0.90000,1.10000,0.90000
     9,'BEGUINE     ', 345.0000,1,   1,   1,   1,1.04292,  28.3382,1.10000,0.90000,1.10000,0.90000
    10,'BREED       ', 345.0000,2,   1,   1,   1,1.05000,  35.9191,1.10000,0.90000,1.10000,0.90000
    11,'SOUTHBEN    ',   1.0000,1,   1,   1,   1,0.98491,  13.0370,1.10000,0.90000,1.10000,0.90000
    12,'TWNBRANC    ',   1.0000,2,   1,   1,   1,0.99000,  12.5149,1.10000,0.90000,1.10000,0.90000
    13,'CONCORD     ', 138.0000,1,   1,   1,   1,0.96750,  11.6685,1.10000,0.90000,1.10000,0.90000
    14,'GOSHENJC    ',   1.0000,1,   1,   1,   1,0.98283,  11.8085,1.10000,0.90000,1.10000,0.90000
    15,'FORTWAYN    ',   1.0000,2,   1,   1,   1,0.96715,  11.5427,1.10000,0.90000,1.10000,0.90000
    16,'N. E.       ', 138.0000,1,   1,   1,   1,0.98313,  12.2224,1.10000,0.90000,1.10000,0.90000
    17,'SORENSON    ', 138.0000,1,   1,   1,   1,0.99270,  14.0560,1.10000,0.90000,1.10000,0.90000
    18,'MCKINLEY    ', 138.0000,2,   1,   1,   1,0.96345,  11.9273,1.10000,0.90000,1.10000,0.90000
    19,'LINCOLN     ', 138.0000,2,   1,   1,   1,0.96006,  11.3657,1.10000,0.90000,1.10000,0.90000
    20,'ADAMS       ', 138.0000,1,   1,   1,   1,0.95567,  12.2323,1.10000,0.90000,1.10000,0.90000
    21,'JAY         ', 138.0000,1,   1,   1,   1,0.95695,  13.8135,1.10000,0.90000,1.10000,0.90000
    22,'RANDOLPH    ', 138.0000,1,   1,   1,   1,0.96881,  16.3593,1.10000,0.90000,1.10000,0.90000
    23,'COLLGECN    ',   1.0000,1,   1,   1,   1,1.00016,  21.2575,1.10000,0.90000,1.10000,0.90000
    24,'TRENTON     ', 138.0000,2,   1,   1,   1,0.99200,  21.1301,1.10000,0.90000,1.10000,0.90000
    25,'TANNERSC    ',   1.0000,2,   1,   1,   1,1.05000,  28.2075,1.10000,0.90000,1.10000,0.90000
    26,'TANNERSC    ',   1.0000,2,   1,   1,   1,1.01500,  29.9945,1.10000,0.90000,1.10000,0.90000
    27,'MADISON     ', 138.0000,2,   1,   1,   1,0.96800,  15.6344,1.10000,0.90000,1.10000,0.90000
    28,'MULLIN      ', 138.0000,1,   1,   1,   1,0.96157,  13.9104,1.10000,0.90000,1.10000,0.90000
    29,'GRANT       ', 138.0000,1,   1,   1,   1,0.96322,  12.9187,1.10000,0.90000,1.10000,0.90000
    30,'SORENSON    ', 345.0000,1,   1,   1,   1,0.98487,  19.0821,1.10000,0.90000,1.10000,0.90000
    31,'DEERCREE    ',   1.0000,2,   1,   1,   1,0.96700,  13.0359,1.10000,0.90000,1.10000,0.90000
    32,'DELAWARE    ', 138.0000,2,   1,   1,   1,0.96704,  15.0260,1.10000,0.90000,1.10000,0.90000
    33,'HAVILAND    ', 138.0000,1,   1,   1,   1,0.97090,  10.9049,1.10000,0.90000,1.10000,0.90000
    34,'ROCKHILL    ', 138.0000,2,   1,   1,   1,0.98827,  11.5285,1.10000,0.90000,1.10000,0.90000
    35,'WEST LIM    ',   1.0000,1,   1,   1,   1,0.98307,  11.1044,1.10000,0.90000,1.10000,0.90000
    36,'STERLING    ', 138.0000,2,   1,   1,   1,0.98250,  11.1072,1.10000,0.90000,1.10000,0.90000
    37,'EAST LIM    ',   1.0000,1,   1,   1,   1,0.99385,  11.9991,1.10000,0.90000,1.10000,0.90000
    38,'EAST LIM    ',   1.0000,1,   1,   1,   1,0.96272,  17.1227,1.10000,0.90000,1.10000,0.90000
    39,'NWLIBERT    ',   1.0000,1,   1,   1,   1,0.97116,   8.6739,1.10000,0.90000,1.10000,0.90000
    40,'WEST END    ', 138.0000,2,   1,   1,   1,0.97000,   7.6234,1.10000,0.90000,1.10000,0.90000
    41,'S. TIFFI    ',   1.0000,1,   1,   1,   1,0.96683,   7.1845,1.10000,0.90000,1.10000,0.90000
    42,'HOWARD      ', 138.0000,2,   1,   1,   1,0.98500,   8.7996,1.10000,0.90000,1.10000,0.90000
    43,'S. KENTO    ',   1.0000,1,   1,   1,   1,0.98019,  11.5242,1.10000,0.90000,1.10000,0.90000
    44,'WMTVERNO    ',   1.0000,1,   1,   1,   1,0.98566,  14.0657,1.10000,0.90000,1.10000,0.90000
    45,'N. NEWAR    ',   1.0000,1,   1,   1,   1,0.98693,  15.9175,1.10000,0.90000,1.10000,0.90000
    46,'W.LANCST    ',   1.0000,2,   1,   1,   1,1.00500,  18.7340,1.10000,0.90000,1.10000,0.90000
    47,'CROOKSVI    ',   1.0000,1,   1,   1,   1,1.01711,  20.9497,1.10000,0.90000,1.10000,0.90000
    48,'ZANESVIL    ',   1.0000,1,   1,   1,   1,1.02063,  20.1944,1.10000,0.90000,1.10000,0.90000
    49,'PHILO       ', 138.0000,2,   1,   1,   1,1.02500,  21.2023,1.10000,0.90000,1.10000,0.90000
    50,'W.CAMBRD    ',   1.0000,1,   1,   1,   1,1.00154,  19.2468,1.10000,0.90000,1.10000,0.90000
    51,'NEWCMRST    ',   1.0000,1,   1,   1,   1,0.96760,  16.7324,1.10000,0.90000,1.10000,0.90000
    52,'SCOSHOCT    ',   1.0000,1,   1,   1,   1,0.95747,  15.8046,1.10000,0.90000,1.10000,0.90000
    53,'WOOSTER     ', 138.0000,1,   1,   1,   1,0.94628,  14.8964,1.10000,0.90000,1.10000,0.90000
    54,'TORREY      ', 138.0000,2,   1,   1,   1,0.95500,  15.8562,1.10000,0.90000,1.10000,0.90000
    55,'WAGENHAL    ',   1.0000,2,   1,   1,   1,0.95247,  15.5621,1.10000,0.90000,1.10000,0.90000
    56,'SUNNYSID    ',   1.0000,2,   1,   1,   1,0.95537,  15.7884,1.10000,0.90000,1.10000,0.90000
    57,'WNWPHILA    ',1138.0000,1,   1,   1,   1,0.97165,  16.8724,1.10000,0.90000,1.10000,0.90000
    58,'WNWPHILA    ',2138.0000,1,   1,   1,   1,0.96006,  16.0353,1.10000,0.90000,1.10000,0.90000
    59,'TIDD        ', 138.0000,2,   1,   1,   1,0.98500,  19.1937,1.10000,0.90000,1.10000,0.90000
    60,'SW KAMME    ',   1.0000,1,   1,   1,   1,0.99309,  23.1046,1.10000,0.90000,1.10000,0.90000
    61,'W. KAMME    ',   1.0000,2,   1,   1,   1,0.99500,  23.9996,1.10000,0.90000,1.10000,0.90000
    62,'NATRIUM     ', 138.0000,2,   1,   1,   1,0.99772,  23.4140,1.10000,0.90000,1.10000,0.90000
    63,'TIDD        ', 345.0000,1,   1,   1,   1,0.96857,  22.6665,1.10000,0.90000,1.10000,0.90000
    64,'KAMMER      ', 345.0000,1,   1,   1,   1,0.98363,  24.4834,1.10000,0.90000,1.10000,0.90000
    65,'MUSKINGU    ',   1.0000,2,   1,   1,   1,1.00500,  27.6973,1.10000,0.90000,1.10000,0.90000
    66,'MUSKINGU    ',   1.0000,2,   1,   1,   1,1.05000,  27.6029,1.10000,0.90000,1.10000,0.90000
    67,'SUMMERFL    ',   1.0000,1,   1,   1,   1,1.01950,  24.9021,1.10000,0.90000,1.10000,0.90000
    68,'SPORN       ', 345.0000,1,   1,   1,   1,1.00325,  27.5854,1.10000,0.90000,1.10000,0.90000
    69,'SPORN       ', 138.0000,3,   1,   1,   1,1.03500,  30.0000,1.10000,0.90000,1.10000,0.90000
    70,'PORTSMOT    ',   1.0000,2,   1,   1,   1,0.98112,  22.6441,1.10000,0.90000,1.10000,0.90000
    71,'NPORTSMT    ',   1.0000,1,   1,   1,   1,0.98539,  22.2137,1.10000,0.90000,1.10000,0.90000
    72,'HILLSBOR    ',   1.0000,2,   1,   1,   1,0.98000,  21.1080,1.10000,0.90000,1.10000,0.90000
    73,'SARGENTS    ', 138.0000,2,   1,   1,   1,0.99100,  21.9856,1.10000,0.90000,1.10000,0.90000
    74,'BELLEFON    ',   1.0000,2,   1,   1,   1,0.95788,  21.6435,1.10000,0.90000,1.10000,0.90000
    75,'STH POIN    ',   1.0000,1,   1,   1,   1,0.96570,  22.9351,1.10000,0.90000,1.10000,0.90000
    76,'DARRAH      ', 138.0000,2,   1,   1,   1,0.93751,  21.8560,1.10000,0.90000,1.10000,0.90000
    77,'TURNER      ', 138.0000,2,   1,   1,   1,1.00377,  26.7853,1.10000,0.90000,1.10000,0.90000
    78,'CHEMICAL    ', 138.0000,1,   1,   1,   1,1.00143,  26.4745,1.10000,0.90000,1.10000,0.90000
    79,'CAPITOLH    ',   1.0000,1,   1,   1,   1,1.00773,  26.7656,1.10000,0.90000,1.10000,0.90000
    80,'CABIN CR    ',   1.0000,2,   1,   1,   1,1.04000,  28.9889,1.10000,0.90000,1.10000,0.90000
    81,'KANAWHA     ', 345.0000,1,   1,   1,   1,0.99681,  28.1367,1.10000,0.90000,1.10000,0.90000
    82,'LOGAN       ', 138.0000,1,   1,   1,   1,0.98871,  27.2731,1.10000,0.90000,1.10000,0.90000
    83,'SPRIGG      ', 138.0000,1,   1,   1,   1,0.98531,  28.4535,1.10000,0.90000,1.10000,0.90000
    84,'BETSYLAY    ',   1.0000,1,   1,   1,   1,0.98180,  30.9622,1.10000,0.90000,1.10000,0.90000
    85,'BEAVERCR    ',   1.0000,2,   1,   1,   1,0.98763,  32.5005,1.10000,0.90000,1.10000,0.90000
    86,'HAZARD      ', 138.0000,1,   1,   1,   1,0.98837,  31.1532,1.10000,0.90000,1.10000,0.90000
    87,'PINEVILL    ',   1.0000,2,   1,   1,   1,1.01500,  31.4253,1.10000,0.90000,1.10000,0.90000
    88,'FREMONT     ', 138.0000,1,   1,   1,   1,0.98853,  35.6402,1.10000,0.90000,1.10000,0.90000
    89,'CLINCHRV    ',   1.0000,2,   1,   1,   1,1.00500,  39.7052,1.10000,0.90000,1.10000,0.90000
    90,'HOLSTON     ', 138.0000,2,   1,   1,   1,0.98500,  33.3117,1.10000,0.90000,1.10000,0.90000
    91,'HOLSTONT    ',   1.0000,2,   1,   1,   1,0.98000,  33.3333,1.10000,0.90000,1.10000,0.90000
    92,'SALTVILL    ',   1.0000,2,   1,   1,   1,0.99333,  33.8171,1.10000,0.90000,1.10000,0.90000
    93,'TAZEWELL    ', 138.0000,1,   1,   1,   1,0.98758,  30.8191,1.10000,0.90000,1.10000,0.90000
    94,'SWITCHBA    ',   1.0000,1,   1,   1,   1,0.99090,  28.6740,1.10000,0.90000,1.10000,0.90000
    95,'CALDWELL    ', 138.0000,1,   1,   1,   1,0.98116,  27.7053,1.10000,0.90000,1.10000,0.90000
    96,'BAILEYSV    ',   1.0000,1,   1,   1,   1,0.99280,  27.5410,1.10000,0.90000,1.10000,0.90000
    97,'SUNDIAL     ', 138.0000,1,   1,   1,   1,1.01143,  27.9145,1.10000,0.90000,1.10000,0.90000
    98,'BRADLEY     ', 138.0000,1,   1,   1,   1,1.02351,  27.4365,1.10000,0.90000,1.10000,0.90000
    99,'HINTON      ', 138.0000,2,   1,   1,   1,1.01000,  27.0738,1.10000,0.90000,1.10000,0.90000
   100,'GLEN LYN    ', 138.0000,2,   1,   1,   1,1.01700,  28.0692,1.10000,0.90000,1.10000,0.90000
   101,'WYTHE       ', 138.0000,1,   1,   1,   1,0.99291,  29.6332,1.10000,0.90000,1.10000,0.90000
   102,'SMYTH       ', 138.0000,1,   1,   1,   1,0.99187,  32.3202,1.10000,0.90000,1.10000,0.90000
   103,'CLAYTOR     ', 138.0000,2,   1,   1,   1,1.00059,  24.4761,1.10000,0.90000,1.10000,0.90000
   104,'HANCOCK     ', 138.0000,2,   1,   1,   1,0.97019,  21.7372,1.10000,0.90000,1.10000,0.90000
   105,'ROANOKE     ', 138.0000,2,   1,   1,   1,0.96709,  20.5859,1.10000,0.90000,1.10000,0.90000
   106,'CLOVERDL    ',   1.0000,1,   1,   1,   1,0.96251,  20.3463,1.10000,0.90000,1.10000,0.90000
   107,'REUSENS     ', 138.0000,2,   1,   1,   1,0.95200,  17.5708,1.10000,0.90000,1.10000,0.90000
   108,'BLAINE      ', 138.0000,1,   1,   1,   1,0.96702,  19.4112,1.10000,0.90000,1.10000,0.90000
   109,'FRANKLIN    ', 138.0000,1,   1,   1,   1,0.96731,  18.9680,1.10000,0.90000,1.10000,0.90000
   110,'FIELDALE    ', 138.0000,2,   1,   1,   1,0.97188,  18.1435,1.10000,0.90000,1.10000,0.90000
   111,'DAN RIVE    ',   1.0000,2,   1,   1,   1,0.98000,  19.7714,1.10000,0.90000,1.10000,0.90000
   112,'DANVILLE    ', 138.0000,2,   1,   1,   1,0.97500,  15.0146,1.10000,0.90000,1.10000,0.90000
   113,'DEERCK T    ',   1.0000,2,   1,   1,   1,0.99300,  14.0145,1.10000,0.90000,1.10000,0.90000
   114,'W MEDFOR    ',   1.0000,1,   1,   1,   1,0.96245,  14.7209,1.10000,0.90000,1.10000,0.90000
   115,'MEDFORD     ', 138.0000,1,   1,   1,   1,0.96209,  14.7173,1.10000,0.90000,1.10000,0.90000
   116,'KYGER CR    ',   1.0000,2,   1,   1,   1,1.00500,  27.1504,1.10000,0.90000,1.10000,0.90000
   117,'COREY       ', 138.0000,1,   1,   1,   1,0.97382,  10.9739,1.10000,0.90000,1.10000,0.90000
   118,'WHUNTNGD    ',   1.0000,1,   1,   1,   1,0.94597,  21.9688,1.10000,0.90000,1.10000,0.90000
0 / END OF BUS DATA, BEGIN LOAD DATA
     1,'1 ',1,   1,   1,    51.000,    27.000,     0.000,     0.000,     0.000,     0.000,   1,1,0
     2,'1 ',1,   1,   1,    20.000,     9.000,     0.000,     0.000,     0.000,     0.000,   1,1,0
     3,'1 ',1,   1,   1,    39.000,    10.000,     0.000,     0.000,     0.000,     0.000,   1,1,0
     4,'1 ',1,   1,   1,    30.000,    12.000,     0.000,     0.000,     0.000,     0.000,   1,1,0
     6,'1 ',1,   1,   1,    52.000,    22.000,     0.000,     0.000,     0.000,     0.000,   1,1,0
     7,'1 ',1,   1,   1,    19.000,     2.000,     0.000,     0.000,     0.000,     0.000,   1,1,0
    11,'1 ',1,   1,   1,    70.000,    23.000,     0.000,     0.000,     0.000,     0.000,   1,1,0
    12,'1 ',1,   1,   1,    47.000,    10.000,     0.000,     0.000,     0.000,     0.000,   1,1,0
    13,'1 ',1,   1,   1,    34.000,    16.000,     0.000,     0.000,     0.000,     0.000,   1,1,0
    14,'1 ',1,   1,   1,    14.000,     1.000,     0.000,     0.000,     0.000,     0.000,   1,1,0
    15,'1 ',1,   1,   1,    90.000,    30.000,     0.000,     0.000,     0.000,     0.000,   1,1,0
    16,'1 ',1,   1,   1,    25.000,    10.000,     0.000,     0.000,     0.000,     0.000,   1,1,0
    17,'1 ',1,   1,   1,    11.000,     3.000,     0.000,     0.000,     0.000,     0.000,   1,1,0
    18,'1 ',1,   1,   1,    60.000,    34.000,     0.000,     0.000,     0.000,     0.000,   1,1,0
    19,'1 ',1,   1,   1,    45.000,    25.000,     0.000,     0.000,     0.000,     0.000,   1,1,0
    20,'1 ',1,   1,   1,    18.000,     3.000,     0.000,     0.000,     0.000,     0.000,   1,1,0
    21,'1 ',1,   1,   1,    14.000,     8.000,     0.000,     0.000,     0.000,     0.000,   1,1,0
    22,'1 ',1,   1,   1,    10.000,     5.000,     0.000,     0.000,     0.000,     0.000,   1,1,0
    23,'1 ',1,   1,   1,     7.000,     3.000,     0.000,     0.000,     0.000,     0.000,   1,1,0
    27,'1 ',1,   1,   1,    62.000,    13.000,     0.000,     0.000,     0.000,     0.000,   1,1,0
    28,'1 ',1,   1,   1,    17.000,     7.000,     0.000,     0.000,     0.000,     0.000,   1,1,0
    29,'1 ',1,   1,   1,    24.000,     4.000,     0.000,     0.000,     0.000,     0.000,   1,1,0
    31,'1 ',1,   1,   1,    43.000,    27.000,     0.000,     0.000,     0.000,     0.000,   1,1,0
    32,'1 ',1,   1,   1,    59.000,    23.000,     0.000,     0.000,     0.000,     0.000,   1,1,0
    33,'1 ',1,   1,   1,    23.000,     9.000,     0.000,     0.000,     0.000,     0.000,   1,1,0
    34,'1 ',1,   1,   1,    59.000,    26.000,     0.000,     0.000,     0.000,     0.000,   1,1,0
    35,'1 ',1,   1,   1,    33.000,     9.000,     0.000,     0.000,     0.000,     0.000,   1,1,0
    36,'1 ',1,   1,   1,    31.000,    17.000,     0.000,     0.000,     0.000,     0.000,   1,1,0
    39,'1 ',1,   1,   1,    27.000,    11.000,     0.000,     0.000,     0.000,     0.000,   1,1,0
    40,'1 ',1,   1,   1,    20.000,    23.000,     0.000,     0.000,     0.000,     0.000,   1,1,0
    41,'1 ',1,   1,   1,    37.000,    10.000,     0.000,     0.000,     0.000,     0.000,   1,1,0
    42,'1 ',1,   1,   1,    37.000,    23.000,     0.000,     0.000,     0.000,     0.000,   1,1,0
    43,'1 ',1,   1,   1,    18.000,     7.000,     0.000,     0.000,     0.000,     0.000,   1,1,0
    44,'1 ',1,   1,   1,    16.000,     8.000,     0.000,     0.000,     0.000,     0.000,   1,1,0
    45,'1 ',1,   1,   1,    53.000,    22.000,     0.000,     0.000,     0.000,     0.000,   1,1,0
    46,'1 ',1,   1,   1,    28.000,    10.000,     0.000,     0.000,     0.000,     0.000,   1,1,0
    47,'1 ',1,   1,   1,    34.000,     0.000,     0.000,     0.000,     0.000,     0.000,   1,1,0
    48,'1 ',1,   1,   1,    20.000,    11.000,     0.000,     0.000,     0.000,     0.000,   1,1,0
    49,'1 ',1,   1,   1,    87.000,    30.000,     0.000,     0.000,     0.000,     0.000,   1,1,0
    50,'1 ',1,   1,   1,    17.000,     4.000,     0.000,     0.000,     0.000,     0.000,   1,1,0
    51,'1 ',1,   1,   1,    17.000,     8.000,     0.000,     0.000,     0.000,     0.000,   1,1,0
    52,'1 ',1,   1,   1,    18.000,     5.000,     0.000,     0.000,     0.000,     0.000,   1,1,0
    53,'1 ',1,   1,   1,    23.000,    11.000,     0.000,     0.000,     0.000,     0.000,   1,1,0
    54,'1 ',1,   1,   1,   113.000,    32.000,     0.000,     0.000,     0.000,     0.000,   1,1,0
    55,'1 ',1,   1,   1,    63.000,    22.000,     0.000,     0.000,     0.000,     0.000,   1,1,0
    56,'1 ',1,   1,   1,    84.000,    18.000,     0.000,     0.000,     0.000,     0.000,   1,1,0
    57,'1 ',1,   1,   1,    12.000,     3.000,     0.000,     0.000,     0.000,     0.000,   1,1,0
    58,'1 ',1,   1,   1,    12.000,     3.000,     0.000,     0.000,     0.000,     0.000,   1,1,0
    59,'1 ',1,   1,   1,   277.000,   113.000,     0.000,     0.000,     0.000,     0.000,   1,1,0
    60,'1 ',1,   1,   1,    78.000,     3.000,     0.000,     0.000,     0.000,     0.000,   1,1,0
    62,'1 ',1,   1,   1,    77.000,    14.000,     0.000,     0.000,     0.000,     0.000,   1,1,0
    66,'1 ',1,   1,   1,    39.000,    18.000,     0.000,     0.000,     0.000,     0.000,   1,1,0
    67,'1 ',1,   1,   1,    28.000,     7.000,     0.000,     0.000,     0.000,     0.000,   1,1,0
    70,'1 ',1,   1,   1,    66.000,    20.000,     0.000,     0.000,     0.000,     0.000,   1,1,0
    74,'1 ',1,   1,   1,    68.000,    27.000,     0.000,     0.000,     0.000,     0.000,   1,1,0
    75,'1 ',1,   1,   1,    47.000,    11.000,     0.000,     0.000,     0.000,     0.000,   1,1,0
    76,'1 ',1,   1,   1,    68.000,    36.000,     0.000,     0.000,     0.000,     0.000,   1,1,0
    77,'1 ',1,   1,   1,    61.000,    28.000,     0.000,     0.000,     0.000,     0.000,   1,1,0
    78,'1 ',1,   1,   1,    71.000,    26.000,     0.000,     0.000,     0.000,     0.000,   1,1,0
    79,'1 ',1,   1,   1,    39.000,    32.000,     0.000,     0.000,     0.000,     0.000,   1,1,0
    80,'1 ',1,   1,   1,   130.000,    26.000,     0.000,     0.000,     0.000,     0.000,   1,1,0
    82,'1 ',1,   1,   1,    54.000,    27.000,     0.000,     0.000,     0.000,     0.000,   1,1,0
    83,'1 ',1,   1,   1,    20.000,    10.000,     0.000,     0.000,     0.000,     0.000,   1,1,0
    84,'1 ',1,   1,   1,    11.000,     7.000,     0.000,     0.000,     0.000,     0.000,   1,1,0
    85,'1 ',1,   1,   1,    24.000,    15.000,     0.000,     0.000,     0.000,     0.000,   1,1,0
    86,'1 ',1,   1,   1,    21.000,    10.000,     0.000,     0.000,     0.000,     0.000,   1,1,0
    88,'1 ',1,   1,   1,    48.000,    10.000,     0.000,     0.000,     0.000,     0.000,   1,1,0
    90,'1 ',1,   1,   1,    78.000,    42.000,     0.000,     0.000,     0.000,     0.000,   1,1,0
    92,'1 ',1,   1,   1,    65.000,    10.000,     0.000,     0.000,     0.000,     0.000,   1,1,0
    93,'1 ',1,   1,   1,    12.000,     7.000,     0.000,     0.000,     0.000,     0.000,   1,1,0
    94,'1 ',1,   1,   1,    30.000,    16.000,     0.000,     0.000,     0.000,     0.000,   1,1,0
    95,'1 ',1,   1,   1,    42.000,    31.000,     0.000,     0.000,     0.000,     0.000,   1,1,0
    96,'1 ',1,   1,   1,    38.000,    15.000,     0.000,     0.000,     0.000,     0.000,   1,1,0
    97,'1 ',1,   1,   1,    15.000,     9.000,     0.000,     0.000,     0.000,     0.000,   1,1,0
    98,'1 ',1,   1,   1,    34.000,     8.000,     0.000,     0.000,     0.000,     0.000,   1,1,0
   100,'1 ',1,   1,   1,    37.000,    18.000,     0.000,     0.000,     0.000,     0.000,   1,1,0
   101,'1 ',1,   1,   1,    22.000,    15.000,     0.000,     0.000,     0.000,     0.000,   1,1,0
   102,'1 ',1,   1,   1,     5.000,     3.000,     0.000,     0.000,     0.000,     0.000,   1,1,0
   103,'1 ',1,   1,   1,    23.000,    16.000,     0.000,     0.000,     0.000,     0.000,   1,1,0
   104,'1 ',1,   1,   1,    38.000,    25.000,     0.000,     0.000,     0.000,     0.000,   1,1,0
   105,'1 ',1,   1,   1,    31.000,    26.000,     0.000,     0.000,     0.000,     0.000,   1,1,0
   106,'1 ',1,   1,   1,    43.000,    16.000,     0.000,     0.000,     0.000,     0.000,   1,1,0
   107,'1 ',1,   1,   1,    28.000,    12.000,     0.000,     0.000,     0.000,     0.000,   1,1,0
   108,'1 ',1,   1,   1,     2.000,     1.000,     0.000,     0.000,     0.000,     0.000,   1,1,0
   109,'1 ',1,   1,   1,     8.000,     3.000,     0.000,     0.000,     0.000,     0.000,   1,1,0
   110,'1 ',1,   1,   1,    39.000,    30.000,     0.000,     0.000,     0.000,     0.000,   1,1,0
   112,'1 ',1,   1,   1,    25.000,    13.000,     0.000,     0.000,     0.000,     0.000,   1,1,0
   114,'1 ',1,   1,   1,     8.000,     3.000,     0.000,     0.000,     0.000,     0.000,   1,1,0
   115,'1 ',1,   1,   1,    22.000,     7.000,     0.000,     0.000,     0.000,     0.000,   1,1,0
   117,'1 ',1,   1,   1,    20.000,     8.000,     0.000,     0.000,     0.000,     0.000,   1,1,0
   118,'1 ',1,   1,   1,    33.000,    15.000,     0.000,     0.000,     0.000,     0.000,   1,1,0
0 / END OF LOAD DATA, BEGIN FIXED SHUNT DATA
     5,'1 ',1,     0.000,   -40.000
    34,'1 ',1,     0.000,    14.000
    37,'1 ',1,     0.000,   -25.000
    44,'1 ',1,     0.000,    10.000
    45,'1 ',1,     0.000,    10.000
    46,'1 ',1,     0.000,    10.000
    48,'1 ',1,     0.000,    15.000
    74,'1 ',1,     0.000,    12.000
    79,'1 ',1,     0.000,    20.000
    82,'1 ',1,     0.000,    20.000
    83,'1 ',1,     0.000,    10.000
   105,'1 ',1,     0.000,    20.000
   107,'1 ',1,     0.000,     6.000
   110,'1 ',1,     0.000,     6.000
0 / END OF FIXED SHUNT DATA, BEGIN GENERATOR DATA
     1,'1 ',     0.000,     0.000,    15.000,    -5.000,0.95500,     0,   100.000, 0.00000E+0, 2.00000E-1, 0.00000E+0, 0.00000E+0,1.00000,0,  100.0,     0.000,     0.000,   1,1.0000
     4,'1 ',    -9.000,   -10.082,   300.000,  -300.000,0.99800,     0,   100.000, 0.00000E+0, 2.00000E-1, 0.00000E+0, 0.00000E+0,1.00000,1,  100.0,    -9.000,     0.000,   1,1.0000
     6,'1 ',     0.000,     0.000,    50.000,   -13.000,0.99000,     0,   100.000, 0.00000E+0, 2.00000E-1, 0.00000E+0, 0.00000E+0,1.00000,0,  100.0,     0.000,     0.000,   1,1.0000
     8,'1 ',   -28.000,    65.533,   300.000,  -300.000,1.01500,     0,   100.000, 0.00000E+0, 2.00000E-1, 0.00000E+0, 0.00000E+0,1.00000,1,  100.0,   -28.000,     0.000,   1,1.0000
    10,'1 ',   450.000,   -51.042,   200.000,  -147.000,1.05000,     0,   100.000, 0.00000E+0, 2.00000E-1, 0.00000E+0, 0.00000E+0,1.00000,1,  100.0,   450.000,     0.000,   1,1.0000
    12,'1 ',    85.000,   100.603,   120.000,   -35.000,0.99000,     0,   100.000, 0.00000E+0, 2.00000E-1, 0.00000E+0, 0.00000E+0,1.00000,1,  100.0,    85.000,     0.000,   1,1.0000
    15,'1 ',     0.000,     0.000,    30.000,   -10.000,0.97000,     0,   100.000, 0.00000E+0, 2.00000E-1, 0.00000E+0, 0.00000E+0,1.00000,0,  100.0,     0.000,     0.000,   1,1.0000
    18,'1 ',     0.000,     0.000,    50.000,   -16.000,0.97300,     0,   100.000, 0.00000E+0, 2.00000E-1, 0.00000E+0, 0.00000E+0,1.00000,0,  100.0,     0.000,     0.000,   1,1.0000
    19,'1 ',     0.000,     0.000,    24.000,    -8.000,0.96200,     0,   100.000, 0.00000E+0, 2.00000E-1, 0.00000E+0, 0.00000E+0,1.00000,0,  100.0,     0.000,     0.000,   1,1.0000
    24,'1 ',   -13.000,   -15.603,   300.000,  -300.000,0.99200,     0,   100.000, 0.00000E+0, 2.00000E-1, 0.00000E+0, 0.00000E+0,1.00000,1,  100.0,   -13.000,     0.000,   1,1.0000
    25,'1 ',   220.000,    49.138,   140.000,   -47.000,1.05000,     0,   100.000, 0.00000E+0, 2.00000E-1, 0.00000E+0, 0.00000E+0,1.00000,1,  100.0,   220.000,     0.000,   1,1.0000
    26,'1 ',   314.000,    10.650,  1000.000, -1000.000,1.01500,     0,   100.000, 0.00000E+0, 2.00000E-1, 0.00000E+0, 0.00000E+0,1.00000,1,  100.0,   314.000,     0.000,   1,1.0000
    27,'1 ',    -9.000,    -3.873,   300.000,  -300.000,0.96800,     0,   100.000, 0.00000E+0, 2.00000E-1, 0.00000E+0, 0.00000E+0,1.00000,1,  100.0,    -9.000,     0.000,   1,1.0000
    31,'1 ',     7.000,    30.065,   300.000,  -300.000,0.96700,     0,   100.000, 0.00000E+0, 2.00000E-1, 0.00000E+0, 0.00000E+0,1.00000,1,  100.0,     7.000,     0.000,   1,1.0000
    32,'1 ',     0.000,     0.000,    42.000,   -14.000,0.96300,     0,   100.000, 0.00000E+0, 2.00000E-1, 0.00000E+0, 0.00000E+0,1.00000,0,  100.0,     0.000,     0.000,   1,1.0000
    34,'1 ',     0.000,     0.000,    24.000,    -8.000,0.98400,     0,   100.000, 0.00000E+0, 2.00000E-1, 0.00000E+0, 0.00000E+0,1.00000,0,  100.0,     0.000,     0.000,   1,1.0000
    36,'1 ',     0.000,     0.000,    24.000,    -8.000,0.98000,     0,   100.000, 0.00000E+0, 2.00000E-1, 0.00000E+0, 0.00000E+0,1.00000,0,  100.0,     0.000,     0.000,   1,1.0000
    40,'1 ',   -46.000,    24.614,   300.000,  -300.000,0.97000,     0,   100.000, 0.00000E+0, 2.00000E-1, 0.00000E+0, 0.00000E+0,1.00000,1,  100.0,   -46.000,     0.000,   1,1.0000
    42,'1 ',   -59.000,    41.133,   300.000,  -300.000,0.98500,     0,   100.000, 0.00000E+0, 2.00000E-1, 0.00000E+0, 0.00000E+0,1.00000,1,  100.0,   -59.000,     0.000,   1,1.0000
    46,'1 ',    19.000,    -5.466,   100.000,  -100.000,1.00500,     0,   100.000, 0.00000E+0, 2.00000E-1, 0.00000E+0, 0.00000E+0,1.00000,1,  100.0,    19.000,     0.000,   1,1.0000
    49,'1 ',   204.000,   113.740,   210.000,   -85.000,1.02500,     0,   100.000, 0.00000E+0, 2.00000E-1, 0.00000E+0, 0.00000E+0,1.00000,1,  100.0,   204.000,     0.000,   1,1.0000
    54,'1 ',    48.000,   -11.132,   300.000,  -300.000,0.95500,     0,   100.000, 0.00000E+0, 2.00000E-1, 0.00000E+0, 0.00000E+0,1.00000,1,  100.0,    48.000,     0.000,   1,1.0000
    55,'1 ',     0.000,     0.000,    23.000,    -8.000,0.95200,     0,   100.000, 0.00000E+0, 2.00000E-1, 0.00000E+0, 0.00000E+0,1.00000,0,  100.0,     0.000,     0.000,   1,1.0000
    56,'1 ',     0.000,     0.000,    15.000,    -8.000,0.95400,     0,   100.000, 0.00000E+0, 2.00000E-1, 0.00000E+0, 0.00000E+0,1.00000,0,  100.0,     0.000,     0.000,   1,1.0000
    59,'1 ',   155.000,    88.117,   180.000,   -60.000,0.98500,     0,   100.000, 0.00000E+0, 2.00000E-1, 0.00000E+0, 0.00000E+0,1.00000,1,  100.0,   155.000,     0.000,   1,1.0000
    61,'1 ',   160.000,   -38.795,   300.000,  -100.000,0.99500,     0,   100.000, 0.00000E+0, 2.00000E-1, 0.00000E+0, 0.00000E+0,1.00000,1,  100.0,   160.000,     0.000,   1,1.0000
    62,'1 ',     0.000,     0.000,    20.000,   -20.000,0.99800,     0,   100.000, 0.00000E+0, 2.00000E-1, 0.00000E+0, 0.00000E+0,1.00000,0,  100.0,     0.000,     0.000,   1,1.0000
    65,'1 ',   391.000,    80.281,   200.000,   -67.000,1.00500,     0,   100.000, 0.00000E+0, 2.00000E-1, 0.00000E+0, 0.00000E+0,1.00000,1,  100.0,   391.000,     0.000,   1,1.0000
    66,'1 ',   392.000,    -1.529,   200.000,   -67.000,1.05000,     0,   100.000, 0.00000E+0, 2.00000E-1, 0.00000E+0, 0.00000E+0,1.00000,1,  100.0,   392.000,     0.000,   1,1.0000
    69,'1 ',   512.606,   -76.270,   300.000,  -300.000,1.03500,     0,   100.000, 0.00000E+0, 2.00000E-1, 0.00000E+0, 0.00000E+0,1.00000,1,  100.0,   516.400,     0.000,   1,1.0000
    70,'1 ',     0.000,     0.000,    32.000,   -10.000,0.98400,     0,   100.000, 0.00000E+0, 2.00000E-1, 0.00000E+0, 0.00000E+0,1.00000,0,  100.0,     0.000,     0.000,   1,1.0000
    72,'1 ',   -12.000,   -10.334,   100.000,  -100.000,0.98000,     0,   100.000, 0.00000E+0, 2.00000E-1, 0.00000E+0, 0.00000E+0,1.00000,1,  100.0,   -12.000,     0.000,   1,1.0000
    73,'1 ',    -6.000,    12.840,   100.000,  -100.000,0.99100,     0,   100.000, 0.00000E+0, 2.00000E-1, 0.00000E+0, 0.00000E+0,1.00000,1,  100.0,    -6.000,     0.000,   1,1.0000
    74,'1 ',     0.000,     0.000,     9.000,    -6.000,0.95800,     0,   100.000, 0.00000E+0, 2.00000E-1, 0.00000E+0, 0.00000E+0,1.00000,0,  100.0,     0.000,     0.000,   1,1.0000
    76,'1 ',     0.000,     0.000,    23.000,    -8.000,0.94300,     0,   100.000, 0.00000E+0, 2.00000E-1, 0.00000E+0, 0.00000E+0,1.00000,0,  100.0,     0.000,     0.000,   1,1.0000
    77,'1 ',     0.000,     0.000,    70.000,   -20.000,1.00600,     0,   100.000, 0.00000E+0, 2.00000E-1, 0.00000E+0, 0.00000E+0,1.00000,0,  100.0,     0.000,     0.000,   1,1.0000
    80,'1 ',   477.000,   114.394,   280.000,  -165.000,1.04000,     0,   100.000, 0.00000E+0, 2.00000E-1, 0.00000E+0, 0.00000E+0,1.00000,1,  100.0,   477.000,     0.000,   1,1.0000
    85,'1 ',     0.000,     0.000,    23.000,    -8.000,0.98500,     0,   100.000, 0.00000E+0, 2.00000E-1, 0.00000E+0, 0.00000E+0,1.00000,0,  100.0,     0.000,     0.000,   1,1.0000
    87,'1 ',     4.000,    10.200,  1000.000,  -100.000,1.01500,     0,   100.000, 0.00000E+0, 2.00000E-1, 0.00000E+0, 0.00000E+0,1.00000,1,  100.0,     4.000,     0.000,   1,1.0000
    89,'1 ',   607.000,   -16.763,   300.000,  -210.000,1.00500,     0,   100.000, 0.00000E+0, 2.00000E-1, 0.00000E+0, 0.00000E+0,1.00000,1,  100.0,   607.000,     0.000,   1,1.0000
    90,'1 ',   -85.000,    59.082,   300.000,  -300.000,0.98500,     0,   100.000, 0.00000E+0, 2.00000E-1, 0.00000E+0, 0.00000E+0,1.00000,1,  100.0,   -85.000,     0.000,   1,1.0000
    91,'1 ',   -10.000,   -15.660,   100.000,  -100.000,0.98000,     0,   100.000, 0.00000E+0, 2.00000E-1, 0.00000E+0, 0.00000E+0,1.00000,1,  100.0,   -10.000,     0.000,   1,1.0000
    92,'1 ',     0.000,     0.000,     9.000,    -3.000,0.99000,     0,   100.000, 0.00000E+0, 2.00000E-1, 0.00000E+0, 0.00000E+0,1.00000,0,  100.0,     0.000,     0.000,   1,1.0000
    99,'1 ',   -42.000,   -17.537,   100.000,  -100.000,1.01000,     0,   100.000, 0.00000E+0, 2.00000E-1, 0.00000E+0, 0.00000E+0,1.00000,1,  100.0,   -42.000,     0.000,   1,1.0000
   100,'1 ',   252.000,   107.513,   155.000,   -50.000,1.01700,     0,   100.000, 0.00000E+0, 2.00000E-1, 0.00000E+0, 0.00000E+0,1.00000,1,  100.0,   252.000,     0.000,   1,1.0000
   103,'1 ',    40.000,    40.000,    40.000,   -15.000,1.01000,     0,   100.000, 0.00000E+0, 2.00000E-1, 0.00000E+0, 0.00000E+0,1.00000,1,  100.0,    40.000,     0.000,   1,1.0000
   104,'1 ',     0.000,     0.000,    23.000,    -8.000,0.97100,     0,   100.000, 0.00000E+0, 2.00000E-1, 0.00000E+0, 0.00000E+0,1.00000,0,  100.0,     0.000,     0.000,   1,1.0000