0  100.000
0,   100.00, 23, 0, 1,  60.00     / PSS(R)E 15-23 RAW CREATE
0,   100.00, 23, 0, 1,  60.00     / PSS(R)E 15-23 RAW CREATE
      1, 1,     0.000,     0.000,  0.000000,  0.000000,   1,1.090990,-2.682301,'1           ',220.0000,   1
      2, 1,     0.000,     0.000,  0.000000,  0.000000,   1,1.092300,-0.900100,'2           ',220.0000,   1
      3, 1,     0.000,     0.000,  0.000000,  0.000000,   1,1.053720,-26.187412,'3           ',220.0000,   1
      4, 1,     0.000,     0.000,  0.000000,  0.000000,   1,1.053320,-26.324711,'4           ',220.0000,   1
      5, 1,     0.000,     0.000,  0.000000,  0.000000,   1,1.064470,-28.343410,'5           ',220.0000,   1
      6, 1,     0.000,     0.000,  0.000000,  0.000000,   1,1.056800,-7.689003,'6           ',220.0000,   1
      7, 1,     0.000,     0.000,  0.000000,  0.000000,   1,1.056710,-7.712503,'7           ',220.0000,   1
      8, 1,     0.000,     0.000,  0.000000,  0.000000,   1,1.064220,-16.462307,'8           ',220.0000,   1
      9, 1,     0.000,     0.000,  0.000000,  0.000000,   1,1.067310,-16.236609,'9           ',220.0000,   1
     10, 1,     0.000,     0.000,  0.000000,  0.000000,   1,1.075620,-20.729708,'10          ',220.0000,   1
     11, 1,     0.000,     0.000,  0.000000,  0.000000,   1,1.009140,-12.269305,'11          ',400.0000,   1
     12, 1,     0.000,     0.000,  0.000000,  0.000000,   1,1.010930,-11.859105,'12          ',400.0000,   1
     13, 1,     0.000,     0.000,  0.000000,  0.000000,   1,0.982580,-16.309908,'13          ',400.0000,   1
     14, 1,     0.000,     0.000,  0.000000,  0.000000,   1,1.013680,-16.903008,'14          ',220.0000,   1
     15, 1,     0.000,     0.000,  0.000000,  0.000000,   1,1.011440,-16.967808,'15          ',220.0000,   1
     16, 1,     0.000,     0.000,  0.000000,  0.000000,   1,0.982610,-21.582607,'16          ',220.0000,   1
     17, 1,     0.000,     0.000,  0.000000,  0.000000,   1,0.979740,-21.602608,'17          ',220.0000,   1
     18, 1,     0.000,     0.000,  0.000000,  0.000000,   1,1.009490,-11.211104,'18          ',400.0000,   1
     19, 1,     0.000,     0.000,  0.000000,  0.000000,   1,1.011230,-10.749905,'19          ',400.0000,   1
     20, 1,     0.000,     0.000,  0.000000,  0.000000,   1,0.987090,-20.215807,'20          ',400.0000,   1
     21, 1,     0.000,     0.000,  0.000000,  0.000000,   1,1.002950,-16.633406,'21          ',400.0000,   1
     22, 2,    10.000,    20.000,  0.000000,  0.000000,   1,1.068180,-20.448908,'22          ',220.0000,   1
     23, 2,    10.000,    20.000,  0.000000,  0.000000,   1,1.068180,-20.463509,'23          ',220.0000,   1
     24, 1,     0.000,     0.000,  0.000000,  0.000000,   1,1.063860,-6.788503,'24          ',220.0000,   1
     25, 1,     0.000,     0.000,  0.000000,  0.000000,   1,1.065190,-6.931103,'25          ',220.0000,   1
     26, 1,     0.000,     0.000,  0.000000,  0.000000,   1,1.015060,-20.233507,'26          ',220.0000,   1
     27, 1,     0.000,     0.000,  0.000000,  0.000000,   1,1.014670,-20.202707,'27          ',220.0000,   1
     28, 1,     0.000,     0.000,  0.000000,  0.000000,   1,1.015490,-15.974306,'28          ',220.0000,   1
     29, 1,     0.000,     0.000,  0.000000,  0.000000,   1,1.014510,-16.204508,'29          ',220.0000,   1
     30, 1,     0.000,     0.000,  0.000000,  0.000000,   1,1.071800,-4.219802,'30          ',220.0000,   1
     31, 1,     0.000,     0.000,  0.000000,  0.000000,   1,1.070630,-4.542502,'31          ',220.0000,   1
     32, 1,     0.000,     0.000,  0.000000,  0.000000,   1,1.005310,-15.117906,'32          ',400.0000,   1
     33, 1,     0.000,     0.000,  0.000000,  0.000000,   1,1.004750,-15.398907,'33          ',400.0000,   1
     34, 1,     0.000,     0.000,  0.000000,  0.000000,   1,0.998860,-18.836407,'34          ',400.0000,   1
     35, 1,  -312.840,   -93.968,  0.000000,  0.000000,   1,1.095220,-2.494501,'35          ',220.0000,   1
     36, 2,  -273.640,    13.133,  0.000000,  0.000000,   1,1.095450,-0.709800,'36          ',220.0000,   1
     37, 3,    59.762,     1.104,  0.000000,  0.000000,   1,1.040000, 0.000000,'37          ',400.0000,   1
     38, 2,  -620.000,   -17.069,  0.000000,  0.000000,   1,1.040000,-0.243300,'38          ',400.0000,   1
     39, 1,     0.000,     0.000,  0.000000,  0.000000,   1,1.008930,-18.494608,'39          ',220.0000,   1
     40, 1,     0.000,     0.000,  0.000000,  0.000000,   1,1.007730,-18.550108,'40          ',220.0000,   1
     41, 1,     0.000,     0.000,  0.000000,  0.000000,   1,1.034510,-2.047101,'41          ',400.0000,   1
     42, 1,     0.000,     0.000,  0.000000,  0.000000,   1,1.034000,-2.168401,'42          ',400.0000,   1
     43, 1,     0.000,     0.000,  0.000000,  0.000000,   1,1.007000,-17.309406,'43          ',220.0000,   1
     44, 1,     0.000,     0.000,  0.000000,  0.000000,   1,1.003060,-16.633905,'44          ',400.0000,   1
     45, 1,     0.000,     0.000,  0.000000,  0.000000,   1,1.046040,-9.682804,'45          ',220.0000,   1
     46, 1,     0.000,     0.000,  0.000000,  0.000000,   1,1.047350,-9.795804,'46          ',220.0000,   1
     47, 1,     0.000,     0.000,  0.000000,  0.000000,   1,1.065220,-7.442503,'47          ',220.0000,   2
     48, 1,     0.000,     0.000,  0.000000,  0.000000,   1,1.069310,-4.414102,'48          ',220.0000,   2
     49, 1,     0.000,     0.000,  0.000000,  0.000000,   1,1.080970,-2.551601,'49          ',220.0000,   2
     50, 1,     0.000,     0.000,  0.000000,  0.000000,   1,1.080720,-2.590401,'50          ',220.0000,   2
     51, 1,     0.000,     0.000,  0.000000,  0.000000,   1,1.038700,-8.319303,'51          ',220.0000,   2
     52, 1,     3.970,     1.000,  0.000000,  0.000000,   1,1.081800,-4.797102,'52          ',220.0000,   2
     53, 1,     0.000,     0.000,  0.000000,  0.000000,   1,1.082360,-4.645502,'53          ',220.0000,   2
     54, 1,     0.000,     0.000,  0.000000,  0.000000,   1,1.020830,-3.782501,'54          ',400.0000,   2
     55, 2,    13.000,    30.000,  0.000000,  0.000000,   1,1.090700,-7.062003,'55          ',220.0000,   2
     56, 1,  -165.650,   -58.930,  0.000000,  0.000000,   1,1.089130,-7.284204,'56          ',220.0000,   2
     57, 2,  -159.000,    19.668,  0.000000,  0.000000,   1,1.090910,-6.938203,'57          ',220.0000,   2
     58, 2,    26.000,    50.000,  0.000000,  0.000000,   1,1.035000,-6.895203,'58          ',400.0000,   2
     59, 2,    26.000,    50.000,  0.000000,  0.000000,   1,1.035000,-6.622003,'59          ',400.0000,   2
     60, 1,     0.000,     0.000,  0.000000,  0.000000,   1,1.076110,-5.392202,'60          ',220.0000,   2
     61, 1,     0.000,     0.000,  0.000000,  0.000000,   1,1.047980,-3.637401,'61          ',400.0000,   2
     62, 1,     0.000,     0.000,  0.000000,  0.000000,   1,1.047650,-3.710101,'62          ',400.0000,   2
     63, 1,     0.000,     0.000,  0.000000,  0.000000,   1,1.029640,-7.714903,'63          ',400.0000,   2
     64, 1,     0.000,     0.000,  0.000000,  0.000000,   1,1.051720,-6.570603,'64          ',220.0000,   2
     65, 1,     0.000,     0.000,  0.000000,  0.000000,   1,1.051320,-6.475402,'65          ',220.0000,   2
     66, 1,     0.000,     0.000,  0.000000,  0.000000,   1,1.031800,-5.260902,'66          ',400.0000,   2
     67, 1,     0.000,     0.000,  0.000000,  0.000000,   1,1.031080,-4.921802,'67          ',400.0000,   2
     68, 2,    13.000,    30.000,  0.000000,  0.000000,   1,1.087850,-0.994200,'68          ',220.0000,   2
     69, 2,  -169.000,    58.195,  0.000000,  0.000000,   1,1.086360,-0.794700,'69          ',220.0000,   2
     70, 1,     0.000,     2.250,  0.000000,  0.000000,   1,1.031020,-2.788601,'70          ',400.0000,   2
     71, 2,  -189.000,    64.179,  0.000000,  0.000000,   1,1.033020,-2.760901,'71          ',400.0000,   2
     72, 1,     0.000,     0.000,  0.000000,  0.000000,   1,1.075140,-7.801503,'72          ',220.0000,   2
     73, 1,     0.000,     0.000,  0.000000,  0.000000,   1,1.075060,-7.767003,'73          ',220.0000,   2
     74, 1,     0.000,     0.000,  0.000000,  0.000000,   1,1.075780,-4.758402,'74          ',220.0000,   2
     75, 1,     0.000,     0.000,  0.000000,  0.000000,   1,1.076330,-4.828902,'75          ',220.0000,   2
     76, 1,     0.000,     0.000,  0.000000,  0.000000,   1,1.080550,-7.535803,'76          ',220.0000,   2
     77, 1,     0.000,     0.000,  0.000000,  0.000000,   1,1.080700,-7.607503,'77          ',220.0000,   2
     78, 1,     0.000,     0.000,  0.000000,  0.000000,   1,1.043420,-3.345801,'78          ',400.0000,   2
     79, 1,     0.000,     0.000,  0.000000,  0.000000,   1,1.044200,-3.488302,'79          ',400.0000,   2
     80, 1,     0.000,     0.000,  0.000000,  0.000000,   1,1.073440,-4.252102,'80          ',220.0000,   2
     81, 1,     0.000,     0.000,  0.000000,  0.000000,   1,1.074700,-4.237201,'81          ',220.0000,   2
     82, 1,     0.000,     0.000,  0.000000,  0.000000,   1,1.054750,-5.100302,'82          ',220.0000,   2
     83, 1,     0.000,     0.000,  0.000000,  0.000000,   1,1.073990,-2.758801,'83          ',220.0000,   3
     84, 1,     6.410,     2.010,  0.000000,  0.000000,   1,1.069980,-3.174801,'84          ',220.0000,   3
     85, 1,    13.890,     5.020,  0.000000,  0.000000,   1,1.069670,-3.155701,'85          ',220.0000,   3
     86, 1,     0.000,     0.000,  0.000000,  0.000000,   1,1.064950,-1.124300,'86          ',220.0000,   3
     87, 1,     0.000,     0.000,  0.000000,  0.000000,   1,1.066460,-0.974400,'87          ',220.0000,   3
     88, 1,     0.000,     0.000,  0.000000,  0.000000,   1,1.081370, 0.811900,'88          ',220.0000,   3
     89, 1,     0.000,     0.000,  0.000000,  0.000000,   1,1.081750, 0.757200,'89          ',220.0000,   3
     90, 1,     0.000,     0.000,  0.000000,  0.000000,   1,1.041170,-3.109301,'90          ',220.0000,   3
     91, 1,     0.000,     0.000,  0.000000,  0.000000,   1,1.037950,-3.131101,'91          ',220.0000,   3
     92, 2,  -182.000,   -61.000,  0.000000,  0.000000,   1,1.077070,-0.111600,'92          ',220.0000,   3
     93, 1,  -402.000,  -194.000,  0.000000,  0.000000,   1,1.079120,-0.233700,'93          ',220.0000,   3
     94, 1,     2.780,     1.910,  0.000000,  0.000000,   1,1.058750,-0.365900,'94          ',220.0000,   3
     95, 1,     0.000,     0.000,  0.000000,  0.000000,   1,1.058900,-0.411600,'95          ',220.0000,   3
     96, 2,  -325.000,   142.057,  0.000000,  0.000000,   1,1.037500, 2.453101,'96          ',400.0000,   3
     97, 1,     0.000,     0.000,  0.000000,  0.000000,   1,1.039240, 1.141101,'97          ',400.0000,   3
     98, 1,     0.000,     0.000,  0.000000,  0.000000,   1,1.036670,-1.098601,'98          ',220.0000,   3
     99, 1,     0.000,     0.000,  0.000000,  0.000000,   1,1.077200, 0.551200,'99          ',220.0000,   3
    100, 1,     0.000,     0.000,  0.000000,  0.000000,   1,1.077180, 0.457800,'100         ',220.0000,   3
    101, 1,    38.800,    -2.700,  0.000000,  0.000000,   1,1.077100,-2.539801,'101         ',220.0000,   3
    102, 1,     0.000,     0.000,  0.000000,  0.000000,   1,1.076590,-2.566801,'102         ',220.0000,   3
    103, 1,     0.000,     0.000,  0.000000,  0.000000,   1,1.074150,-0.155500,'103         ',220.0000,   3
    104, 1,     0.000,     0.000,  0.000000,  0.000000,   1,1.072860,-0.186200,'104         ',220.0000,   3
    105, 1,     0.020,     0.950,  0.000000,  0.000000,   1,1.079190,-2.270701,'105         ',220.0000,   3
    106, 1,     0.000,     0.000,  0.000000,  0.000000,   1,1.079440,-2.272101,'106         ',220.0000,   3
    107, 1,     0.000,     0.000,  0.000000,  0.000000,   1,1.038540,-1.432301,'107         ',400.0000,   3
    108, 1,     0.000,     0.000,  0.000000,  0.000000,   1,1.038930,-1.150700,'108         ',400.0000,   3
    109, 1,     0.000,     0.000,  0.000000,  0.000000,   1,1.076680, 0.329000,'109         ',220.0000,   3
    110, 1,     0.000,     0.000,  0.000000,  0.000000,   1,1.076360, 0.359900,'110         ',220.0000,   3
    111, 1,     0.000,     0.000,  0.000000,  0.000000,   1,1.058120, 0.454500,'111         ',220.0000,   3
    112, 1,     0.000,     0.000,  0.000000,  0.000000,   1,1.057000, 0.343700,'112         ',220.0000,   3
    113, 1,    19.410,    12.710,  0.000000,  0.000000,   1,1.074300,-1.342801,'113         ',220.0000,   3
    114, 1,     0.000,     0.000,  0.000000,  0.000000,   1,1.074370,-1.452301,'114         ',220.0000,   3
    115, 1,     0.000,     0.000,  0.000000,  0.000000,   1,1.069990,-3.123502,'115         ',220.0000,   3
    116, 1,     0.000,     0.000,  0.000000,  0.000000,   1,1.070100,-3.159801,'116         ',220.0000,   3
    117, 1,     0.000,     0.000,  0.000000,  0.000000,   1,1.025490,-3.119901,'117         ',220.0000,   3
    118, 1,     0.000,     0.000,  0.000000,  0.000000,   1,1.024290,-3.083601,'118         ',220.0000,   3
    119, 2,    10.000,    44.000,  0.000000,  0.000000,   1,1.081820, 1.117800,'119         ',220.0000,   3
    120, 2,    10.000,    44.000,  0.000000,  0.000000,   1,1.081820, 0.901700,'120         ',220.0000,   3
    121, 2,     7.000,    18.000,  0.000000,  0.000000,   1,1.081820, 0.133800,'121         ',220.0000,   3
    122, 2,     8.000,    21.000,  0.000000,  0.000000,   1,1.081820, 0.312200,'122         ',220.0000,   3
    123, 1,     0.000,     0.000,  0.000000,  0.000000,   1,1.072140,-2.263601,'123         ',220.0000,   3
    124, 1,    59.400,    11.610,  0.000000,  0.000000,   1,1.072590,-2.323201,'124         ',220.0000,   3
    125, 1,     0.000,     0.000,  0.000000,  0.000000,   1,1.027170,-3.455901,'125         ',220.0000,   3
    126, 1,     0.000,     0.000,  0.000000,  0.000000,   1,1.058050, 0.401200,'126         ',220.0000,   3
    127, 1,     0.000,     0.000,  0.000000,  0.000000,   1,1.058340, 0.351000,'127         ',220.0000,   3
    128, 1,     0.000,     0.000,  0.000000,  0.000000,   1,1.058890,-0.638500,'128         ',220.0000,   3
    129, 1,     0.000,     0.000,  0.000000,  0.000000,   1,1.060550,-0.574000,'129         ',220.0000,   3
    130, 1,     0.000,     0.000,  0.000000,  0.000000,   1,1.033440,-0.635500,'130         ',400.0000,   3
    131, 1,     0.000,     0.000,  0.000000,  0.000000,   1,1.033440,-0.635500,'131         ',400.0000,   3
    132, 1,     0.000,     1.780,  0.000000,  0.000000,   1,1.075480,-0.749100,'132         ',220.0000,   3
    133, 2,     9.000,    20.000,  0.000000,  0.000000,   1,1.074680,-0.768300,'133         ',220.0000,   3
    134, 2,     6.000,    15.000,  0.000000,  0.000000,   1,1.041300,-2.268301,'134         ',220.0000,   3
    135, 1,     0.000,     0.000,  0.000000,  0.000000,   1,1.042500,-2.285301,'135         ',220.0000,   3
    136, 1,     0.000,     0.000,  0.000000,  0.000000,   1,1.040880,-3.298101,'136         ',400.0000,   3
    137, 1,     0.000,     0.000,  0.000000,  0.000000,   1,1.043860,-3.235201,'137         ',400.0000,   3
    138, 1,     0.000,     0.000,  0.000000,  0.000000,   1,1.041970,-1.457001,'138         ',400.0000,   3
    139, 1,     0.000,     0.000,  0.000000,  0.000000,   1,1.042660,-1.530801,'139         ',400.0000,   3
    140, 1,     0.000,     0.000,  0.000000,  0.000000,   1,1.018910,-3.749501,'140         ',220.0000,   3
    141, 1,     0.000,     0.000,  0.000000,  0.000000,   1,1.019230,-3.690902,'141         ',220.0000,   3
    142, 2,    18.221,    39.083,  0.000000,  0.000000,   1,1.081820, 1.905501,'142         ',220.0000,   3
    143, 2,  -163.480,    14.885,  0.000000,  0.000000,   1,1.081820, 2.067601,'143         ',220.0000,   3
    144, 2,  -177.000,    60.459,  0.000000,  0.000000,   1,1.037500, 1.116900,'144         ',400.0000,   3
    145, 1,     0.000,     0.000,  0.000000,  0.000000,   1,1.036790, 0.840700,'145         ',400.0000,   3
    146, 1,     0.000,     0.000,  0.000000,  0.000000,   1,1.075770,-2.599301,'146         ',220.0000,   3
    147, 1,     0.000,     0.000,  0.000000,  0.000000,   1,1.076170,-2.495601,'147         ',220.0000,   3
    148, 1,     0.000,     0.000,  0.000000,  0.000000,   1,1.078430, 0.074400,'148         ',220.0000,   3
    149, 1,     0.000,     0.000,  0.000000,  0.000000,   1,1.078050,-2.236501,'149         ',220.0000,   3
    150, 1,     0.000,    -0.790,  0.000000,  0.000000,   1,1.041250,-3.109901,'150         ',220.0000,   3
    151, 1,     0.000,    -0.790,  0.000000,  0.000000,   1,1.038020,-3.131701,'151         ',220.0000,   3
    152, 2,     7.700,    20.000,  0.000000,  0.000000,   1,1.065680,-12.434805,'152         ',220.0000,   4
    153, 2,     7.800,    20.000,  0.000000,  0.000000,   1,1.065900,-12.546905,'153         ',220.0000,   4
    154, 1,     0.000,     0.000,  0.000000,  0.000000,   1,1.036270,-10.001605,'154         ',220.0000,   4
    155, 1,     0.000,     0.000,  0.000000,  0.000000,   1,1.036280,-10.012704,'155         ',220.0000,   4
    156, 1,     0.000,     0.000,  0.000000,  0.000000,   1,1.007530,-11.591905,'156         ',220.0000,   4
    157, 1,     0.000,     0.000,  0.000000,  0.000000,   1,1.056700,-8.519603,'157         ',220.0000,   4
    158, 1,     0.000,     0.000,  0.000000,  0.000000,   1,1.055530,-8.633404,'158         ',220.0000,   4
    159, 1,     0.000,     0.000,  0.000000,  0.000000,   1,1.007220,-7.309303,'159         ',400.0000,   4
    160, 1,     0.000,     0.000,  0.000000,  0.000000,   1,1.006630,-7.335703,'160         ',400.0000,   4
    161, 1,     0.000,     0.000,  0.000000,  0.000000,   1,1.008470,-21.603710,'161         ',220.0000,   4
    162, 1,     0.000,     0.000,  0.000000,  0.000000,   1,1.047920,-33.605110,'162         ',220.0000,   4
    163, 1,     0.000,     0.000,  0.000000,  0.000000,   1,1.047920,-33.605110,'163         ',220.0000,   4
    164, 1,     0.000,     0.000,  0.000000,  0.000000,   1,1.022960,-28.512812,'164         ',220.0000,   4
    165, 1,     0.000,     0.000,  0.000000,  0.000000,   1,1.022960,-28.512812,'165         ',220.0000,   4
    166, 1,     0.000,     0.000,  0.000000,  0.000000,   1,1.002980,-11.880005,'166         ',220.0000,   4
    167, 1,     0.000,   -13.010,  0.000000,  0.000000,   1,1.052230,-16.546007,'167         ',220.0000,   4
    168, 1,     0.000,     0.000,  0.000000,  0.000000,   1,1.052780,-16.531506,'168         ',220.0000,   4
    169, 2,    12.000,    30.000,  0.000000,  0.000000,   1,1.078740,-32.033516,'169         ',220.0000,   4
    170, 1,  -160.090,   -74.978,  0.000000,  0.000000,   1,1.079690,-31.794113,'170         ',220.0000,   4
    171, 2,    12.000,    30.000,  0.000000,  0.000000,   1,1.031150,-24.788809,'171         ',400.0000,   4
    172, 1,  -188.000,   -71.050,  0.000000,  0.000000,   1,1.030120,-24.085209,'172         ',400.0000,   4
    173, 1,     0.000,     0.000,  0.000000,  0.000000,   1,0.972200,-21.393709,'173         ',220.0000,   4
    174, 1,     0.000,     0.000,  0.000000,  0.000000,   1,0.973170,-21.495810,'174         ',220.0000,   4
    175, 1,     0.000,     0.000,  0.000000,  0.000000,   1,0.993620,-21.199507,'175         ',220.0000,   4
    176, 1,     0.000,     0.000,  0.000000,  0.000000,   1,0.995040,-21.086409,'176         ',220.0000,   4
    177, 2,  -158.500,   -48.014,  0.000000,  0.000000,   1,1.089940,-5.358502,'177         ',220.0000,   4
    178, 1,  -616.100,  -212.343,  0.000000,  0.000000,   1,1.089830,-5.348902,'178         ',220.0000,   4
    179, 1,     0.000,     0.000,  0.000000,  0.000000,   1,1.089830,-5.348902,'179         ',220.0000,   4
    180, 2,  -167.607,   -39.357,  0.000000,  0.000000,   1,1.026620,-4.246002,'180         ',400.0000,   4
    181, 1,     0.000,     0.000,  0.000000,  0.000000,   1,1.025410,-4.333901,'181         ',400.0000,   4
    182, 1,     0.000,     0.000,  0.000000,  0.000000,   1,1.050910,-33.641617,'182         ',220.0000,   4
    183, 1,     0.000,     0.000,  0.000000,  0.000000,   1,1.050910,-33.641617,'183         ',220.0000,   4
    184, 1,     0.000,     0.000,  0.000000,  0.000000,   1,1.014910,-5.776503,'184         ',400.0000,   4
    185, 1,     0.000,     0.000,  0.000000,  0.000000,   1,0.993340,-12.888704,'185         ',400.0000,   4
    186, 1,     0.000,     0.000,  0.000000,  0.000000,   1,1.011890,-5.784802,'186         ',400.0000,   4
    187, 1,     0.000,     0.000,  0.000000,  0.000000,   1,1.013380,-5.233802,'187         ',400.0000,   4
    188, 2,    12.000,    30.000,  0.000000,  0.000000,   1,1.054550,-16.549908,'188         ',220.0000,   4
    189, 2,  -136.200,   -52.000,  0.000000,  0.000000,   1,1.053660,-16.762306,'189         ',220.0000,   4
    190, 2,    38.000,    64.000,  0.000000,  0.000000,   1,1.005000,-10.689604,'190         ',400.0000,   4
    191, 1,     0.000,     0.000,  0.000000,  0.000000,   1,1.003540,-29.199911,'191         ',220.0000,   4
    192, 1,     0.000,     0.000,  0.000000,  0.000000,   1,1.004560,-29.380112,'192         ',220.0000,   4
    193, 1,     0.000,     0.000,  0.000000,  0.000000,   1,1.045980,-33.729610,'193         ',220.0000,   4
    194, 1,     0.000,     0.000,  0.000000,  0.000000,   1,1.045850,-33.753311,'194         ',220.0000,   4
    195, 1,     0.000,     0.000,  0.000000,  0.000000,   1,1.012070,-21.281708,'195         ',220.0000,   4
    196, 1,     0.000,     0.000,  0.000000,  0.000000,   1,1.010970,-21.451908,'196         ',220.0000,   4
    197, 1,     0.000,     0.000,  0.000000,  0.000000,   1,0.974690,-17.600407,'197         ',400.0000,   4
    198, 1,     0.000,     0.000,  0.000000,  0.000000,   1,0.989500,-16.653305,'198         ',220.0000,   4
    199, 1,     0.000,     0.000,  0.000000,  0.000000,   1,0.989630,-16.570906,'199         ',220.0000,   4
    200, 1,     0.000,     0.000,  0.000000,  0.000000,   1,1.002950,-22.043110,'200         ',220.0000,   4
    201, 1,     0.000,     0.000,  0.000000,  0.000000,   1,1.036530,-9.438004,'201         ',220.0000,   4
    202, 1,     0.000,     0.000,  0.000000,  0.000000,   1,1.036040,-9.601503,'202         ',220.0000,   4
    203, 1,     0.000,     0.000,  0.000000,  0.000000,   1,1.032240,-7.579504,'203         ',220.0000,   4
    204, 1,     0.000,    -7.170,  0.000000,  0.000000,   1,0.995030,-21.210508,'204         ',220.0000,   4
    205, 1,     0.000,     0.000,  0.000000,  0.000000,   1,0.975770,-18.746908,'205         ',220.0000,   4
    206, 1,     0.000,     0.000,  0.000000,  0.000000,   1,0.976100,-18.482208,'206         ',220.0000,   4
    207, 1,     0.000,     0.000,  0.000000,  0.000000,   1,1.000680,-27.611111,'207         ',220.0000,   5
    208, 1,     0.000,     0.000,  0.000000,  0.000000,   1,1.088780,-30.048712,'208         ',220.0000,   5
    209, 1,     0.000,     0.000,  0.000000,  0.000000,   1,1.034980,-28.859510,'209         ',400.0000,   5
    210, 1,     0.000,     0.000,  0.000000,  0.000000,   1,1.035200,-28.679310,'210         ',400.0000,   5
    211, 1,     0.000,     0.000,  0.000000,  0.000000,   1,1.022860,-28.789112,'211         ',400.0000,   5
    212, 1,     0.000,     0.000,  0.000000,  0.000000,   1,1.024060,-29.037710,'212         ',400.0000,   5
    213, 1,     0.000,     0.000,  0.000000,  0.000000,   1,1.005650,-34.773613,'213         ',400.0000,   5
    214, 1,     0.000,     0.000,  0.000000,  0.000000,   1,1.004080,-32.725216,'214         ',220.0000,   5
    215, 1,     0.000,     0.000,  0.000000,  0.000000,   1,1.004600,-32.784012,'215         ',220.0000,   5
    216, 1,     0.000,     0.000,  0.000000,  0.000000,   1,1.026380,-27.269409,'216         ',220.0000,   5
    217, 1,     0.000,     0.000,  0.000000,  0.000000,   1,1.025000,-27.343811,'217         ',220.0000,   5
    218, 1,     0.000,     0.000,  0.000000,  0.000000,   1,0.990360,-24.614609,'218         ',400.0000,   5
    219, 1,     0.000,     0.000,  0.000000,  0.000000,   1,0.990360,-24.614609,'219         ',400.0000,   5
    220, 1,     0.000,     0.000,  0.000000,  0.000000,   1,1.001750,-30.416412,'220         ',400.0000,   5
    221, 1,     0.000,     0.000,  0.000000,  0.000000,   1,1.008880,-26.434912,'221         ',220.0000,   5
    222, 1,     0.000,     0.000,  0.000000,  0.000000,   1,1.008720,-26.550209,'222         ',220.0000,   5
    223, 1,     0.000,     0.000,  0.000000,  0.000000,   1,1.009970,-31.511713,'223         ',220.0000,   5
    224, 1,    -0.008,     0.849,  0.000000,  0.000000,   1,1.044420,-29.358112,'224         ',220.0000,   5
    225, 1,     0.000,     0.000,  0.000000,  0.000000,   1,1.015790,-29.851511,'225         ',400.0000,   5
    226, 1,     0.000,     0.000,  0.000000,  0.000000,   1,1.013950,-29.801313,'226         ',400.0000,   5
    227, 1,     0.000,     0.000,  0.000000,  0.000000,   1,1.015050,-32.513813,'227         ',400.0000,   5
    228, 1,     0.000,     0.000,  0.000000,  0.000000,   1,1.035470,-29.138609,'228         ',220.0000,   5
    229, 1,     0.000,     0.000,  0.000000,  0.000000,   1,1.036630,-29.066612,'229         ',220.0000,   5
    230, 1,     0.121,   -76.496,  0.000000,  0.000000,   1,1.044750,-29.211714,'230         ',400.0000,   5
    231, 1,     0.000,     0.000,  0.000000,  0.000000,   1,1.043640,-29.161709,'231         ',400.0000,   5
    232, 1,     0.000,     0.000,  0.000000,  0.000000,   1,0.992440,-28.033312,'232         ',220.0000,   5
    233, 1,     0.000,     0.000,  0.000000,  0.000000,   1,0.991410,-28.006212,'233         ',220.0000,   5
    234, 1,     0.000,     0.000,  0.000000,  0.000000,   1,0.995970,-25.444910,'234         ',220.0000,   5
    235, 1,     0.000,     0.000,  0.000000,  0.000000,   1,0.994930,-25.683409,'235         ',220.0000,   5
    236, 2,  -168.000,     4.816,  0.000000,  0.000000,   1,1.037500,-28.529112,'236         ',400.0000,   5
    237, 1,     5.208,   -59.854,  0.000000,  0.000000,   1,1.037430,-28.627211,'237         ',400.0000,   5
    238, 1,     0.000,     0.000,  0.000000,  0.000000,   1,1.048540,-31.507511,'238         ',220.0000,   5
    239, 1,     0.000,     0.000,  0.000000,  0.000000,   1,1.049920,-31.493513,'239         ',220.0000,   5
    240, 2,     8.000,    20.000,  0.000000,  0.000000,   1,1.090910, 3.993902,'240         ',220.0000,   1
    241, 1,     9.860,     2.000,  0.000000,  0.000000,   1,1.036200,-24.540710,'241         ',110.0000,   1
    242, 1,     6.410,     0.000,  0.000000,  0.000000,   1,1.045550,-31.411011,'242         ',110.0000,   1
    243, 1,     9.370,     0.600,  0.000000,  0.000000,   1,1.045390,-31.399813,'243         ',110.0000,   1
    244, 1,     7.250,     4.000,  0.000000,  0.000000,   1,1.062530,-20.218708,'244         ',110.0000,   1
    245, 1,     0.000,     0.000,  0.000000,  0.000000,   1,1.062850,-20.281507,'245         ',110.0000,   1
    246, 1,     2.180,     2.400,  0.000000,  0.000000,   1,0.995930,-23.795309,'246         ',110.0000,   1
    247, 1,     5.120,     4.910,  0.000000,  0.000000,   1,0.995800,-23.804010,'247         ',110.0000,   1
    248, 1,     3.650,     0.900,  0.000000,  0.000000,   1,1.077710,-3.792502,'248         ',110.0000,   1
    249, 1,     3.850,     1.000,  0.000000,  0.000000,   1,1.080740,-4.033301,'249         ',110.0000,   1
    250, 1,     4.440,    -1.760,  0.000000,  0.000000,   1,1.081530,-25.306009,'250         ',110.0000,   1
    251, 2,     2.500,     0.000,  0.000000,  0.000000,   1,1.081820,-25.284809,'251         ',110.0000,   1
    252, 1,    17.760,     1.200,  0.000000,  0.000000,   1,1.082000,-25.028709,'252         ',110.0000,   1
    253, 1,    12.330,     2.100,  0.000000,  0.000000,   1,1.081390,-24.892311,'253         ',110.0000,   1
    254, 1,     7.410,     0.990,  0.000000,  0.000000,   1,1.081450,-24.933012,'254         ',110.0000,   1
    255, 1,     4.930,     0.000,  0.000000,  0.000000,   1,1.083140,-24.593910,'255         ',110.0000,   1
    256, 1,     4.930,     0.000,  0.000000,  0.000000,   1,1.083090,-24.659210,'256         ',110.0000,   1
    257, 1,    14.800,     2.500,  0.000000,  0.000000,   1,1.081760,-24.858309,'257         ',110.0000,   1
    258, 1,     5.420,     1.100,  0.000000,  0.000000,   1,1.081680,-25.112110,'258         ',110.0000,   1
    259, 1,     4.440,     1.000,  0.000000,  0.000000,   1,1.081760,-25.136610,'259         ',110.0000,   1
    260, 1,     2.960,     0.500,  0.000000,  0.000000,   1,1.080510,-25.289909,'260         ',110.0000,   1
    261, 1,     5.420,     0.600,  0.000000,  0.000000,   1,1.080510,-25.308910,'261         ',110.0000,   1
    262, 1,     0.000,     0.000,  0.000000,  0.000000,   1,1.082320,-25.308910,'262         ',110.0000,   1
    263, 1,     2.960,     0.900,  0.000000,  0.000000,   1,1.036540,-23.377308,'263         ',110.0000,   1
    264, 1,     5.330,     1.500,  0.000000,  0.000000,   1,1.036880,-23.361809,'264         ',110.0000,   1
    265, 1,     3.450,     0.700,  0.000000,  0.000000,   1,1.048830,-22.504309,'265         ',110.0000,   1
    266, 1,     3.450,     0.700,  0.000000,  0.000000,   1,1.048840,-22.560610,'266         ',110.0000,   1
    267, 1,     2.840,     0.800,  0.000000,  0.000000,   1,1.067910,-14.892906,'267         ',110.0000,   1
    268, 1,     2.740,     0.800,  0.000000,  0.000000,   1,1.056510,-9.749703,'268         ',110.0000,   1
    269, 1,     6.250,     2.000,  0.000000,  0.000000,   1,1.055330,-22.275209,'269         ',110.0000,   1
    270, 1,     6.690,     3.000,  0.000000,  0.000000,   1,1.055430,-22.297407,'270         ',110.0000,   1
    271, 1,     0.490,     0.200,  0.000000,  0.000000,   1,1.062300,-6.850503,'271         ',110.0000,   1
    272, 1,     0.790,     0.200,  0.000000,  0.000000,   1,1.062070,-6.913502,'272         ',110.0000,   1