60, 'GENCLS', '1 ',  8.000000,   5.000000 /
67, 'GENCLS', '1 ',  8.000000,   5.000000 /
79, 'GENCLS', '1 ',  8.000000,   5.000000 /
80, 'GENCLS', '1 ',  8.000000,   5.000000 /
82, 'GENCLS', '1 ',  8.000000,   5.000000 /
89, 'GENCLS', '1 ',  8.000000,   5.000000 /
90, 'GENCLS', '1 ',  8.000000,   5.000000 /
91, 'GENCLS', '1 ',  8.000000,   5.000000 /
93, 'GENCLS', '1 ',  8.000000,   5.000000 /
94, 'GENCLS', '1 ',  8.000000,   5.000000 /
95, 'GENCLS', '1 ',  8.000000,   5.000000 /
96, 'GENCLS', '1 ',  8.000000,   5.000000 /
97, 'GENCLS', '1 ',  8.000000,   5.000000 /
98, 'GENCLS', '1 ',  8.000000,   5.000000 /
99, 'GENCLS', '1 ',  8.000000,   5.000000 /
100, 'GENCLS', '1 ',  8.000000,   5.000000 /
101, 'GENCLS', '1 ',  8.000000,   5.000000 /
102, 'GENCLS', '1 ',  8.000000,   5.000000 /
103, 'GENCLS', '1 ',  8.000000,   5.000000 /
104, 'GENCLS', '1 ',  8.000000,   5.000000 /
105, 'GENCLS', '1 ',  8.000000,   5.000000 /
106, 'GENCLS', '1 ',  8.000000,   5.000000 /
108, 'GENCLS', '1 ',  8.000000,   5.000000 /
109, 'GENCLS', '1 ',  8.000000,   5.000000 /
110, 'GENCLS', '1 ',  8.000000,   5.000000 /
111, 'GENCLS', '1 ',  8.000000,   5.000000 /
112, 'GENCLS', '1 ',  8.000000,   5.000000 /
115, 'GENCLS', '1 ',  8.000000,   5.000000 /
116, 'GENCLS', '1 ',  8.000000,   5.000000 /
117, 'GENCLS', '1 ',  8.000000,   5.000000 /
118, 'GENCLS', '1 ',  8.000000,   5.000000 /
119, 'GENCLS', '1 ',  8.000000,   5.000000 /
121, 'GENCLS', '1 ',  8.000000,   5.000000 /
122, 'GENCLS', '1 ',  8.000000,   5.000000 /
124, 'GENCLS', '1 ',  8.000000,   5.000000 /
128, 'GENCLS', '1 ',  8.000000,   5.000000 /
130, 'GENCLS', '1 ',  8.000000,   5.000000 /
131, 'GENCLS', '1 ',  8.000000,   5.000000 /
132, 'GENCLS', '1 ',  8.000000,   5.000000 /
134, 'GENCLS', '1 ',  8.000000,   5.000000 /
135, 'GENCLS', '1 ',  8.000000,   5.000000 /
136, 'GENCLS', '1 ',  8.000000,   5.000000 /
137, 'GENCLS', '1 ',  8.000000,   5.000000 /
139, 'GENCLS', '1 ',  8.000000,   5.000000 /
140, 'GENCLS', '1 ',  8.000000,   5.000000 /
141, 'GENCLS', '1 ',  8.000000,   5.000000 /
142, 'GENCLS', '1 ',  8.000000,   5.000000 /
143, 'GENCLS', '1 ',  8.000000,   5.000000 /
144, 'GENCLS', '1 ',  8.000000,   5.000000 /
145, 'GENCLS', '1 ',  8.000000,   5.000000 /
