 1, 'GENCLS', 1,  3.00000,     0.00000   /
 2, 'GENCLS', 1,  3.00000,      0.00000  /
 3, 'GENCLS', 1,  3.00000,      0.00000  /
 
 
 
