0,   100.00, 33, 0, 0, 60.00     / PSS(R)E 33 RAW created by rawd33  THU, JUL 30 2020  17:40
THIS IS A SYNTHETIC POWER SYSTEM MODEL THAT DOES NOT REPRESE
DATA RESEARCH PROJECT AND CONTAINS NO CEII.
  1001,'ODESSA 2 0  ', 115.0000,1,   1,   9,   1,0.99817, -57.4818,1.10000,0.90000,1.10000,0.90000
  1002,'PRESIDIO 2 0', 115.0000,1,   1,   9,   1,1.02612, -53.0575,1.10000,0.90000,1.10000,0.90000
  1003,'O DONNELL ~1', 115.0000,1,   1,   9,   1,1.01835, -61.1583,1.10000,0.90000,1.10000,0.90000
  1004,'O DONNELL ~2', 230.0000,2,   1,   9,   1,1.02381, -62.2411,1.10000,0.90000,1.10000,0.90000
  1005,'BIG SPRING~8', 115.0000,1,   1,   9,   1,1.01741, -51.0360,1.10000,0.90000,1.10000,0.90000
  1006,'BIG SPRING~9',  13.8000,1,   1,   9,   1,1.01253, -50.1012,1.10000,0.90000,1.10000,0.90000
  1007,'VAN HORN 0  ', 115.0000,1,   1,   9,   1,1.02862, -51.6063,1.10000,0.90000,1.10000,0.90000
  1008,'IRAAN 2 0   ', 115.0000,1,   1,   9,   1,1.01653, -52.2614,1.10000,0.90000,1.10000,0.90000
  1009,'IRAAN 2 1   ',  13.8000,1,   1,   9,   1,1.00630, -50.6448,1.10000,0.90000,1.10000,0.90000
  1010,'PRESIDIO 1 0', 115.0000,1,   1,   9,   1,1.02903, -52.5915,1.10000,0.90000,1.10000,0.90000
  1011,'PRESIDIO 1 1',  22.0000,1,   1,   9,   1,1.02972, -52.1977,1.10000,0.90000,1.10000,0.90000
  1012,'SANDERSON 0 ', 115.0000,1,   1,   9,   1,1.02568, -65.4437,1.10000,0.90000,1.10000,0.90000
  1013,'MONAHANS 2 0', 115.0000,1,   1,   9,   1,0.99761, -45.3629,1.10000,0.90000,1.10000,0.90000
  1014,'GRANDFALLS 0', 115.0000,1,   1,   9,   1,1.00443, -46.1958,1.10000,0.90000,1.10000,0.90000
  1015,'MARFA 0     ', 115.0000,1,   1,   9,   1,1.03204, -52.7124,1.10000,0.90000,1.10000,0.90000
  1016,'GARDEN CIT~1', 115.0000,1,   1,   9,   1,1.02340, -52.6615,1.10000,0.90000,1.10000,0.90000
  1017,'ODESSA 4 0  ', 115.0000,1,   1,   9,   1,0.98545, -55.1305,1.10000,0.90000,1.10000,0.90000
  1018,'NOTREES 0   ', 115.0000,1,   1,   9,   1,0.98575, -55.2426,1.10000,0.90000,1.10000,0.90000
  1019,'MIDLAND 4 0 ', 115.0000,1,   1,   9,   1,1.01708, -57.4326,1.10000,0.90000,1.10000,0.90000
  1020,'BIG SPRING~1', 115.0000,1,   1,   9,   1,1.03000, -55.2751,1.10000,0.90000,1.10000,0.90000
  1021,'BIG SPRING~2',  13.8000,2,   1,   9,   1,1.00851, -52.1059,1.10000,0.90000,1.10000,0.90000
  1022,'O DONNELL ~3', 115.0000,1,   1,   9,   1,1.02034, -60.9249,1.10000,0.90000,1.10000,0.90000
  1023,'O DONNELL ~4',  13.8000,2,   1,   9,   1,1.01000, -56.6372,1.10000,0.90000,1.10000,0.90000
  1024,'ODESSA 6 0  ', 115.0000,1,   1,   9,   1,0.98571, -55.3168,1.10000,0.90000,1.10000,0.90000
  1025,'BIG SPRIN~14', 115.0000,1,   1,   9,   1,1.02365, -53.3773,1.10000,0.90000,1.10000,0.90000
  1026,'BIG SPRIN~15',  13.8000,2,   1,   9,   1,1.00454, -49.9852,1.10000,0.90000,1.10000,0.90000
  1027,'MIDLAND 2 0 ', 115.0000,1,   1,   9,   1,1.02324, -59.3278,1.10000,0.90000,1.10000,0.90000
  1028,'COAHOMA 0   ', 115.0000,1,   1,   9,   1,1.02531, -62.0776,1.10000,0.90000,1.10000,0.90000
  1029,'MIDLAND 3 0 ', 115.0000,1,   1,   9,   1,1.01174, -58.1341,1.10000,0.90000,1.10000,0.90000
  1030,'ALPINE 0    ', 115.0000,1,   1,   9,   1,1.02044, -52.2618,1.10000,0.90000,1.10000,0.90000
  1031,'FORT DAVIS 0', 115.0000,1,   1,   9,   1,1.01229, -49.1110,1.10000,0.90000,1.10000,0.90000
  1032,'MCCAMEY 1 0 ', 115.0000,1,   1,   9,   1,1.00344, -52.3159,1.10000,0.90000,1.10000,0.90000
  1033,'MCCAMEY 1 1 ', 230.0000,2,   1,   9,   1,1.00008, -53.5488,1.10000,0.90000,1.10000,0.90000
  1034,'BIG SPRING~6', 115.0000,1,   1,   9,   1,1.01221, -50.4082,1.10000,0.90000,1.10000,0.90000
  1035,'BIG SPRING~7',  13.8000,2,   1,   9,   1,1.00225, -48.8108,1.10000,0.90000,1.10000,0.90000
  1036,'CRANE 0     ', 115.0000,1,   1,   9,   1,0.99902, -52.9708,1.10000,0.90000,1.10000,0.90000
  1037,'ODESSA 5 0  ', 115.0000,1,   1,   9,   1,0.98462, -56.7041,1.10000,0.90000,1.10000,0.90000
  1038,'FORT STOCK~1', 115.0000,1,   1,   9,   1,1.01447, -49.8530,1.10000,0.90000,1.10000,0.90000
  1039,'FORT STOCK~2',  22.0000,2,   1,   9,   1,1.00000, -47.2389,1.10000,0.90000,1.10000,0.90000
  1040,'ANDREWS 0   ', 115.0000,1,   1,   9,   1,0.99315, -56.8146,1.10000,0.90000,1.10000,0.90000
  1041,'FORSAN 0    ', 115.0000,1,   1,   9,   1,1.01122, -49.7079,1.10000,0.90000,1.10000,0.90000
  1042,'FORSAN 1    ',  13.8000,2,   1,   9,   1,1.00000, -45.9681,1.10000,0.90000,1.10000,0.90000
  1043,'FORSAN 2    ',  13.8000,1,   1,   9,   1,1.00061, -48.1434,1.10000,0.90000,1.10000,0.90000
  1044,'BIG LAKE 0  ', 115.0000,1,   1,   9,   1,1.02161, -64.6009,1.10000,0.90000,1.10000,0.90000
  1045,'MIDLAND 5 0 ', 115.0000,1,   1,   9,   1,0.99798, -58.9701,1.10000,0.90000,1.10000,0.90000
  1046,'OZONA 0     ', 115.0000,1,   1,   9,   1,1.02999, -63.4319,1.10000,0.90000,1.10000,0.90000
  1047,'MONAHANS 1 0', 115.0000,1,   1,   9,   1,0.99578, -42.7425,1.10000,0.90000,1.10000,0.90000
  1048,'MONAHANS 1 1',  18.0000,2,   1,   9,   1,1.00000, -33.8722,1.10000,0.90000,1.10000,0.90000
  1049,'MONAHANS 1 2',  18.0000,2,   1,   9,   1,1.00000, -26.7092,1.10000,0.90000,1.10000,0.90000
  1050,'MONAHANS 1 3',  18.0000,2,   1,   9,   1,0.99578, -42.7425,1.10000,0.90000,1.10000,0.90000
  1051,'MONAHANS 1 4',  18.0000,2,   1,   9,   1,0.99578, -42.7425,1.10000,0.90000,1.10000,0.90000
  1052,'MONAHANS 1 5',  18.0000,2,   1,   9,   1,0.99578, -42.7425,1.10000,0.90000,1.10000,0.90000
  1053,'MONAHANS 1 6', 230.0000,2,   1,   9,   1,1.00407, -48.1617,1.10000,0.90000,1.10000,0.90000
  1054,'STANTON 0   ', 115.0000,1,   1,   9,   1,1.02017, -57.3625,1.10000,0.90000,1.10000,0.90000
  1055,'ODONNELL 0  ', 115.0000,1,   1,   9,   1,1.01367, -61.1799,1.10000,0.90000,1.10000,0.90000
  1056,'LENORAH 0   ', 115.0000,1,   1,   9,   1,1.02999, -55.1226,1.10000,0.90000,1.10000,0.90000
  1057,'LENORAH 1   ',  18.0000,2,   1,   9,   1,1.00646, -50.8836,1.10000,0.90000,1.10000,0.90000
  1058,'IRAAN 3 0   ', 115.0000,1,   1,   9,   1,1.02322, -54.8143,1.10000,0.90000,1.10000,0.90000
  1059,'IRAAN 3 1   ',  22.0000,2,   1,   9,   1,1.02322, -54.8143,1.10000,0.90000,1.10000,0.90000
  1060,'IRAAN 3 2   ',  22.0000,2,   1,   9,   1,1.02322, -54.8143,1.10000,0.90000,1.10000,0.90000
  1061,'BIG SPRIN~10', 115.0000,1,   1,   9,   1,1.02078, -50.8581,1.10000,0.90000,1.10000,0.90000
  1062,'BIG SPRIN~11',  13.8000,1,   1,   9,   1,1.02090, -50.7911,1.10000,0.90000,1.10000,0.90000
  1063,'BIG SPRIN~12',  13.8000,2,   1,   9,   1,1.01815, -42.5796,1.10000,0.90000,1.10000,0.90000
  1064,'ODESSA 3 0  ', 115.0000,1,   1,   9,   1,0.99193, -58.7472,1.10000,0.90000,1.10000,0.90000
  1065,'BIG SPRING~4', 115.0000,1,   1,   9,   1,1.01259, -49.9408,1.10000,0.90000,1.10000,0.90000
  1066,'BIG SPRING~5',  13.8000,2,   1,   9,   1,1.00000, -46.3086,1.10000,0.90000,1.10000,0.90000
  1067,'BIG SPRIN~13', 115.0000,1,   1,   9,   1,1.01121, -50.3444,1.10000,0.90000,1.10000,0.90000
  1068,'MIDLAND 1 0 ', 115.0000,1,   1,   9,   1,0.99146, -55.2382,1.10000,0.90000,1.10000,0.90000
  1069,'IRAAN 1 0   ', 115.0000,1,   1,   9,   1,1.02236, -52.8587,1.10000,0.90000,1.10000,0.90000
  1070,'IRAAN 1 1   ',  13.8000,2,   1,   9,   1,1.04000, -50.7035,1.10000,0.90000,1.10000,0.90000
  1071,'ODESSA 1 0  ', 115.0000,1,   1,   9,   1,1.00466, -56.3518,1.10000,0.90000,1.10000,0.90000
  1072,'ODESSA 1 1  ',  18.0000,3,   1,   9,   1,1.01000, -48.4237,1.10000,0.90000,1.10000,0.90000
  1073,'ODESSA 1 2  ',  18.0000,2,   1,   9,   1,1.01000, -48.1508,1.10000,0.90000,1.10000,0.90000
  1074,'ODESSA 1 3  ',  18.0000,2,   1,   9,   1,1.01000, -48.5134,1.10000,0.90000,1.10000,0.90000
  1075,'ODESSA 1 4  ',  18.0000,2,   1,   9,   1,1.01000, -50.0830,1.10000,0.90000,1.10000,0.90000
  1076,'ODESSA 1 5  ',  18.0000,2,   1,   9,   1,1.01000, -53.2523,1.10000,0.90000,1.10000,0.90000
  1077,'ODESSA 1 6  ',  18.0000,2,   1,   9,   1,1.01000, -48.7705,1.10000,0.90000,1.10000,0.90000
  1078,'ODESSA 1 7  ',  18.0000,2,   1,   9,   1,1.00466, -56.3518,1.10000,0.90000,1.10000,0.90000
  1079,'ODESSA 1 8  ', 500.0000,2,   1,   9,   1,1.04087, -68.1220,1.10000,0.90000,1.10000,0.90000
  1080,'ODESSA 1 9  ',  18.0000,2,   1,   9,   1,1.00466, -56.3518,1.10000,0.90000,1.10000,0.90000
  1081,'ODESSA 1 10 ', 230.0000,2,   1,   9,   1,1.01000, -51.7891,1.10000,0.90000,1.10000,0.90000
  1082,'FORT STOCK~3', 115.0000,2,   1,   9,   1,1.01401, -49.8191,1.10000,0.90000,1.10000,0.90000
  1083,'FORT STOCK~4', 115.0000,1,   1,   9,   1,1.01802, -50.0850,1.10000,0.90000,1.10000,0.90000
  1084,'BIG SPRING~3', 115.0000,2,   1,   9,   1,1.03384, -56.1278,1.10000,0.90000,1.10000,0.90000
  1085,'KERMIT 0    ', 115.0000,1,   1,   9,   1,0.99489, -46.8930,1.10000,0.90000,1.10000,0.90000
  1086,'PECOS 0     ', 115.0000,1,   1,   9,   1,1.00303, -48.3739,1.10000,0.90000,1.10000,0.90000
  1087,'SHEFFIELD 0 ', 115.0000,1,   1,   9,   1,1.02998, -58.5682,1.10000,0.90000,1.10000,0.90000
  1088,'MCCAMEY 2 0 ', 115.0000,1,   1,   9,   1,0.99939, -52.8155,1.10000,0.90000,1.10000,0.90000
  1089,'LAMESA 0    ', 115.0000,1,   1,   9,   1,1.00029, -61.0135,1.10000,0.90000,1.10000,0.90000
  1090,'GOLDSMITH 0 ', 115.0000,1,   1,   9,   1,1.00525, -53.3369,1.10000,0.90000,1.10000,0.90000
  1091,'RALLS 2 0   ', 161.0000,1,   1,   9,   1,1.03312, -73.0852,1.10000,0.90000,1.10000,0.90000
  2001,'PARIS 3 0   ', 161.0000,1,   2,  11,   1,1.01072, -77.9761,1.10000,0.90000,1.10000,0.90000
  2002,'SAVOY 0     ', 500.0000,1,   2,  11,   1,1.02448, -75.8411,1.10000,0.90000,1.10000,0.90000
  2003,'SAVOY 1     ', 161.0000,1,   2,  11,   1,1.02431, -77.8678,1.10000,0.90000,1.10000,0.90000
  2004,'SAVOY 2     ',  13.8000,2,   2,  11,   1,1.02000, -74.8924,1.10000,0.90000,1.10000,0.90000
  2005,'SAVOY 3     ',  13.8000,2,   2,  11,   1,1.02000, -74.7313,1.10000,0.90000,1.10000,0.90000
  2006,'SAVOY 4     ',  13.8000,2,   2,  11,   1,1.02000, -74.1109,1.10000,0.90000,1.10000,0.90000
  2007,'HONEY GROV~1', 161.0000,1,   2,  11,   1,1.01644, -77.2977,1.10000,0.90000,1.10000,0.90000
  2008,'MEMPHIS 0   ', 161.0000,1,   2,  10,   1,1.01149, -76.7487,1.10000,0.90000,1.10000,0.90000
  2009,'IOWA PARK 0 ', 161.0000,1,   2,  11,   1,1.03000, -76.5319,1.10000,0.90000,1.10000,0.90000
  2010,'VERNON 2 0  ', 161.0000,1,   2,  10,   1,1.03000, -76.5021,1.10000,0.90000,1.10000,0.90000
  2011,'PANHANDLE ~2', 500.0000,1,   2,  10,   1,1.03789, -73.1996,1.10000,0.90000,1.10000,0.90000
  2012,'PANHANDLE ~3', 161.0000,1,   2,  10,   1,1.02723, -73.7185,1.10000,0.90000,1.10000,0.90000
  2013,'PANHANDLE ~4',  18.0000,1,   2,  10,   1,1.02982, -72.9903,1.10000,0.90000,1.10000,0.90000
  2014,'CHILDRESS 0 ', 161.0000,1,   2,  10,   1,1.01034, -77.0509,1.10000,0.90000,1.10000,0.90000
  2015,'FORESTBURG 0', 161.0000,1,   2,  11,   1,1.01916, -82.4300,1.10000,0.90000,1.10000,0.90000
  2016,'SHERMAN 3 0 ', 161.0000,1,   2,  11,   1,1.02285, -81.9806,1.10000,0.90000,1.10000,0.90000
  2017,'PANHANDLE ~7', 500.0000,1,   2,  10,   1,1.03170, -72.3018,1.10000,0.90000,1.10000,0.90000
  2018,'PANHANDLE ~8', 161.0000,1,   2,  10,   1,1.03212, -72.7920,1.10000,0.90000,1.10000,0.90000
  2019,'PANHANDLE ~9',  20.0000,2,   2,  10,   1,1.03170, -72.3018,1.10000,0.90000,1.10000,0.90000
  2020,'WICHITA F~12', 161.0000,1,   2,  11,   1,1.01643, -74.6709,1.10000,0.90000,1.10000,0.90000
  2021,'PARIS 2 0   ', 500.0000,1,   2,  11,   1,1.02530, -74.8916,1.10000,0.90000,1.10000,0.90000
  2022,'PARIS 2 1   ', 161.0000,1,   2,  11,   1,1.01793, -76.8604,1.10000,0.90000,1.10000,0.90000
  2023,'PARIS 2 2   ',  13.8000,2,   2,  11,   1,1.02530, -74.8916,1.10000,0.90000,1.10000,0.90000
  2024,'PARIS 2 3   ',  13.8000,2,   2,  11,   1,1.02099, -73.6047,1.10000,0.90000,1.10000,0.90000
  2025,'WICHITA F~10', 161.0000,1,   2,  11,   1,1.01439, -74.1681,1.10000,0.90000,1.10000,0.90000
  2026,'WHEELER 0   ', 161.0000,1,   2,  10,   1,1.02622, -74.0929,1.10000,0.90000,1.10000,0.90000
  2027,'DEPORT 0    ', 161.0000,1,   2,  11,   1,1.00894, -78.5106,1.10000,0.90000,1.10000,0.90000
  2028,'WICHITA FA~9', 161.0000,1,   2,  11,   1,1.01643, -76.3098,1.10000,0.90000,1.10000,0.90000
  2029,'SILVERTON 0 ', 161.0000,1,   2,  10,   1,1.01932, -75.9338,1.10000,0.90000,1.10000,0.90000
  2030,'BONHAM 0    ', 161.0000,1,   2,  11,   1,1.00160, -80.4533,1.10000,0.90000,1.10000,0.90000
  2031,'MATADOR 0   ', 161.0000,1,   2,  10,   1,1.03337, -71.5422,1.10000,0.90000,1.10000,0.90000
  2032,'ARTHUR CIT~1', 161.0000,1,   2,  11,   1,1.01802, -76.8877,1.10000,0.90000,1.10000,0.90000
  2033,'LEONARD 0   ', 161.0000,1,   2,  11,   1,0.98836, -82.8787,1.10000,0.90000,1.10000,0.90000
  2034,'GORDONVILL~1', 161.0000,1,   2,  11,   1,1.02426, -81.5910,1.10000,0.90000,1.10000,0.90000
  2035,'KNOX CITY 0 ', 161.0000,1,   2,  10,   1,1.02991, -71.9854,1.10000,0.90000,1.10000,0.90000
  2036,'WICHITA F~13', 161.0000,1,   2,  11,   1,1.01690, -74.7841,1.10000,0.90000,1.10000,0.90000
  2037,'LINDSAY 0   ', 161.0000,1,   2,  11,   1,1.02776, -82.2711,1.10000,0.90000,1.10000,0.90000
  2038,'ECTOR 0     ', 161.0000,1,   2,  11,   1,1.01968, -78.6927,1.10000,0.90000,1.10000,0.90000
  2039,'SUNSET 0    ', 161.0000,1,   2,  11,   1,1.00370, -81.7902,1.10000,0.90000,1.10000,0.90000
  2040,'CLARKSVILL~1', 161.0000,1,   2,  11,   1,1.01596, -77.4614,1.10000,0.90000,1.10000,0.90000
  2041,'PANHANDLE ~5', 161.0000,1,   2,  10,   1,1.02137, -73.6062,1.10000,0.90000,1.10000,0.90000
  2042,'PANHANDLE ~6',  18.0000,1,   2,  10,   1,1.01254, -73.4813,1.10000,0.90000,1.10000,0.90000
  2043,'SADLER 0    ', 161.0000,1,   2,  11,   1,1.02362, -81.7697,1.10000,0.90000,1.10000,0.90000
  2044,'WHITESBORO 0', 161.0000,1,   2,  11,   1,1.02569, -80.8357,1.10000,0.90000,1.10000,0.90000
  2045,'SHEPPARD A~1', 161.0000,1,   2,  11,   1,1.01590, -75.0598,1.10000,0.90000,1.10000,0.90000
  2046,'POTTSBORO 0 ', 161.0000,1,   2,  11,   1,1.02511, -81.3631,1.10000,0.90000,1.10000,0.90000
  2047,'BELLS 0     ', 161.0000,1,   2,  11,   1,1.02441, -78.4852,1.10000,0.90000,1.10000,0.90000
  2048,'CROSBYTON 0 ', 161.0000,1,   2,  10,   1,1.03457, -73.3451,1.10000,0.90000,1.10000,0.90000
  2049,'ELECTRA 0   ', 161.0000,1,   2,  10,   1,1.02677, -76.4848,1.10000,0.90000,1.10000,0.90000
  2050,'PATTONVILL~1', 161.0000,1,   2,  11,   1,0.98435, -82.2743,1.10000,0.90000,1.10000,0.90000
  2051,'HENRIETTA 0 ', 161.0000,1,   2,  11,   1,1.01319, -79.2911,1.10000,0.90000,1.10000,0.90000
  2052,'PANHANDLE~13', 161.0000,1,   2,  10,   1,1.01332, -76.0126,1.10000,0.90000,1.10000,0.90000
  2053,'BOWIE 0     ', 161.0000,1,   2,  11,   1,1.00318, -79.5735,1.10000,0.90000,1.10000,0.90000
  2054,'WICHITA FA~1', 500.0000,1,   2,  11,   1,1.01926, -73.1718,1.10000,0.90000,1.10000,0.90000
  2055,'WICHITA FA~2', 161.0000,1,   2,  11,   1,1.01808, -73.9911,1.10000,0.90000,1.10000,0.90000
  2056,'WICHITA FA~3',  18.0000,2,   2,  11,   1,1.01926, -73.1718,1.10000,0.90000,1.10000,0.90000
  2057,'WICHITA FA~4',  18.0000,3,   2,  11,   1,0.99000, -71.0735,1.10000,0.90000,1.10000,0.90000
  2058,'WHITE DEER 0', 161.0000,1,   2,  10,   1,1.01954, -73.6288,1.10000,0.90000,1.10000,0.90000
  2059,'WHITE DEER 1',  13.8000,1,   2,  10,   1,1.00805, -73.5526,1.10000,0.90000,1.10000,0.90000
  2060,'ROXTON 0    ', 161.0000,1,   2,  11,   1,0.98992, -80.8935,1.10000,0.90000,1.10000,0.90000
  2061,'VERNON 1 0  ', 161.0000,1,   2,  10,   1,1.02537, -76.1231,1.10000,0.90000,1.10000,0.90000
  2062,'VERNON 1 1  ',  18.0000,1,   2,  10,   1,1.01996, -75.7315,1.10000,0.90000,1.10000,0.90000
  2063,'DENISON 2 0 ', 161.0000,1,   2,  11,   1,1.02694, -80.9712,1.10000,0.90000,1.10000,0.90000
  2064,'SUMNER 0    ', 161.0000,1,   2,  11,   1,1.00386, -78.7842,1.10000,0.90000,1.10000,0.90000
  2065,'GAINESVILL~1', 161.0000,1,   2,  11,   1,1.03000, -82.4863,1.10000,0.90000,1.10000,0.90000
  2066,'ASPERMONT 0 ', 161.0000,1,   2,  10,   1,1.02972, -69.6121,1.10000,0.90000,1.10000,0.90000
  2067,'WICHITA F~11', 161.0000,1,   2,  11,   1,1.01179, -74.1488,1.10000,0.90000,1.10000,0.90000
  2068,'WINDTHORST 0', 161.0000,1,   2,  11,   1,1.01107, -72.8260,1.10000,0.90000,1.10000,0.90000
  2069,'HOWE 0      ', 161.0000,1,   2,  11,   1,1.03000, -81.3891,1.10000,0.90000,1.10000,0.90000
  2070,'ARCHER 2 0  ', 161.0000,1,   2,  11,   1,1.01192, -72.4050,1.10000,0.90000,1.10000,0.90000
  2071,'ARCHER 2 1  ',  18.0000,2,   2,  11,   1,1.00000, -71.3169,1.10000,0.90000,1.10000,0.90000
  2072,'COLLINSVIL~1', 161.0000,1,   2,  11,   1,1.02790, -80.0233,1.10000,0.90000,1.10000,0.90000
  2073,'JAYTON 0    ', 161.0000,1,   2,  10,   1,1.03043, -67.5453,1.10000,0.90000,1.10000,0.90000
  2074,'JAYTON 1    ', 115.0000,1,   2,  10,   1,1.02273, -66.6557,1.10000,0.90000,1.10000,0.90000
  2075,'JAYTON 2    ', 115.0000,1,   2,  10,   1,1.02273, -66.6557,1.10000,0.90000,1.10000,0.90000
  2076,'JAYTON 3    ',  24.0000,1,   2,  10,   1,1.03533, -67.1257,1.10000,0.90000,1.10000,0.90000
  2077,'MUENSTER 1 0', 161.0000,1,   2,  11,   1,1.02726, -81.6874,1.10000,0.90000,1.10000,0.90000
  2078,'MUENSTER 1 1',  13.8000,1,   2,  11,   1,1.01994, -80.7037,1.10000,0.90000,1.10000,0.90000
  2079,'PADUCAH 0   ', 161.0000,1,   2,  10,   1,1.03310, -75.3567,1.10000,0.90000,1.10000,0.90000
  2080,'NOCONA 0    ', 161.0000,1,   2,  11,   1,1.01403, -80.6007,1.10000,0.90000,1.10000,0.90000
  2081,'DODD CITY 0 ', 161.0000,1,   2,  11,   1,1.01156, -80.1671,1.10000,0.90000,1.10000,0.90000
  2082,'WICHITA FA~5', 161.0000,1,   2,  11,   1,1.01781, -75.4391,1.10000,0.90000,1.10000,0.90000
  2083,'WICHITA FA~6',  20.0000,2,   2,  11,   1,1.01781, -75.4391,1.10000,0.90000,1.10000,0.90000
  2084,'WICHITA FA~7',  20.0000,2,   2,  11,   1,1.01781, -75.4391,1.10000,0.90000,1.10000,0.90000
  2085,'WICHITA FA~8',  20.0000,2,   2,  11,   1,1.01781, -75.4391,1.10000,0.90000,1.10000,0.90000
  2086,'MONTAGUE 0  ', 161.0000,1,   2,  11,   1,1.00792, -81.3583,1.10000,0.90000,1.10000,0.90000
  2087,'SPUR 0      ', 161.0000,1,   2,  10,   1,1.03164, -69.6352,1.10000,0.90000,1.10000,0.90000
  2088,'ARCHER 1 0  ', 161.0000,1,   2,  11,   1,1.01105, -72.6257,1.10000,0.90000,1.10000,0.90000
  2089,'ARCHER 1 1  ',  24.0000,1,   2,  11,   1,0.99979, -71.5611,1.10000,0.90000,1.10000,0.90000
  2090,'ANNONA 0    ', 161.0000,1,   2,  11,   1,1.00472, -79.3923,1.10000,0.90000,1.10000,0.90000
  2091,'SEYMOUR 0   ', 161.0000,1,   2,  10,   1,1.02898, -74.7138,1.10000,0.90000,1.10000,0.90000
  2092,'DENISON 1 0 ', 161.0000,1,   2,  11,   1,1.02486, -79.7541,1.10000,0.90000,1.10000,0.90000
  2093,'PANHANDLE~10', 161.0000,1,   2,  10,   1,1.03005, -73.2894,1.10000,0.90000,1.10000,0.90000
  2094,'PANHANDLE~11',  13.8000,2,   2,  10,   1,1.03005, -73.2894,1.10000,0.90000,1.10000,0.90000
  2095,'PANHANDLE~12',  13.8000,2,   2,  10,   1,1.03005, -73.2894,1.10000,0.90000,1.10000,0.90000
  2096,'RALLS 1 0   ', 500.0000,1,   2,  10,   1,1.03000, -69.7869,1.10000,0.90000,1.10000,0.90000
  2097,'RALLS 1 1   ', 230.0000,1,   2,  10,   1,1.02964, -69.3342,1.10000,0.90000,1.10000,0.90000
  2098,'RALLS 1 2   ', 161.0000,1,   2,  10,   1,1.03428, -72.4938,1.10000,0.90000,1.10000,0.90000
  2099,'RALLS 1 3   ',  18.0000,1,   2,  10,   1,1.02952, -69.7444,1.10000,0.90000,1.10000,0.90000
  2100,'RALLS 1 4   ',  18.0000,2,   2,  10,   1,1.02120, -69.0003,1.10000,0.90000,1.10000,0.90000
  2101,'SHERMAN 1 0 ', 500.0000,1,   2,  11,   1,1.02498, -76.4799,1.10000,0.90000,1.10000,0.90000
  2102,'SHERMAN 1 1 ', 161.0000,1,   2,  11,   1,1.02614, -77.8046,1.10000,0.90000,1.10000,0.90000
  2103,'SHERMAN 1 2 ',  20.0000,2,   2,  11,   1,1.02144, -75.9265,1.10000,0.90000,1.10000,0.90000
  2104,'SHERMAN 1 3 ',  20.0000,2,   2,  11,   1,1.02030, -75.7547,1.10000,0.90000,1.10000,0.90000
  2105,'SHERMAN 1 4 ',  20.0000,2,   2,  11,   1,1.01765, -75.3291,1.10000,0.90000,1.10000,0.90000
  2106,'WHITEWRIGH~1', 161.0000,1,   2,  11,   1,0.99534, -82.3017,1.10000,0.90000,1.10000,0.90000
  2107,'SHERMAN 2 0 ', 161.0000,1,   2,  11,   1,1.02300, -78.4277,1.10000,0.90000,1.10000,0.90000
  2108,'ROCHESTER 0 ', 161.0000,1,   2,  10,   1,1.02637, -73.7504,1.10000,0.90000,1.10000,0.90000
  2109,'BURKBURNET~1', 161.0000,1,   2,  11,   1,1.02140, -76.7871,1.10000,0.90000,1.10000,0.90000
  2110,'MUENSTER 2 0', 161.0000,1,   2,  11,   1,1.03000, -81.9898,1.10000,0.90000,1.10000,0.90000
  2111,'ARCHER CIT~1', 161.0000,1,   2,  11,   1,1.02015, -74.5808,1.10000,0.90000,1.10000,0.90000
  2112,'PETROLIA 0  ', 161.0000,1,   2,  11,   1,1.01526, -77.2464,1.10000,0.90000,1.10000,0.90000
  2113,'PARIS 1 0   ', 500.0000,1,   2,  11,   1,1.02568, -74.7288,1.10000,0.90000,1.10000,0.90000
  2114,'PARIS 1 1   ', 161.0000,1,   2,  11,   1,1.02361, -75.7043,1.10000,0.90000,1.10000,0.90000
  2115,'PARIS 1 2   ',  13.8000,2,   2,  11,   1,1.01770, -71.9135,1.10000,0.90000,1.10000,0.90000
  2116,'PARIS 1 3   ',  13.8000,2,   2,  11,   1,1.02168, -73.2691,1.10000,0.90000,1.10000,0.90000
  2117,'PARIS 1 4   ',  13.8000,2,   2,  11,   1,1.01560, -71.4668,1.10000,0.90000,1.10000,0.90000
  2118,'PARIS 1 5   ',  13.8000,2,   2,  11,   1,1.01451, -71.1103,1.10000,0.90000,1.10000,0.90000
  2119,'PARIS 1 6   ',  13.8000,2,   2,  11,   1,1.02073, -72.9502,1.10000,0.90000,1.10000,0.90000
  2120,'PARIS 1 7   ',  13.8000,2,   2,  11,   1,1.01514, -71.2526,1.10000,0.90000,1.10000,0.90000
  2121,'BAGWELL 0   ', 161.0000,1,   2,  11,   1,1.01255, -78.1517,1.10000,0.90000,1.10000,0.90000
  2122,'TELEPHONE 0 ', 161.0000,1,   2,  11,   1,1.01064, -78.3242,1.10000,0.90000,1.10000,0.90000
  2123,'PANHANDLE ~1', 161.0000,1,   2,  10,   1,1.01886, -73.5655,1.10000,0.90000,1.10000,0.90000
  2124,'VAN ALSTYN~1', 161.0000,1,   2,  11,   1,0.98966, -83.3402,1.10000,0.90000,1.10000,0.90000
  2125,'TIOGA 0     ', 161.0000,1,   2,  11,   1,1.01697, -80.2780,1.10000,0.90000,1.10000,0.90000
  2126,'VALLEY VIE~1', 161.0000,1,   2,  11,   1,1.02360, -82.4703,1.10000,0.90000,1.10000,0.90000
  2127,'MIAMI 0     ', 500.0000,1,   2,  10,   1,1.03974, -73.1062,1.10000,0.90000,1.10000,0.90000
  2128,'MIAMI 1     ', 161.0000,1,   2,  10,   1,1.03380, -73.6723,1.10000,0.90000,1.10000,0.90000
  2129,'TRENTON 0   ', 161.0000,1,   2,  11,   1,0.99817, -82.2053,1.10000,0.90000,1.10000,0.90000
  2130,'HASKELL 0   ', 161.0000,1,   2,  10,   1,1.02642, -73.4754,1.10000,0.90000,1.10000,0.90000
  2131,'HASKELL 1   ', 115.0000,1,   2,  10,   1,1.02388, -72.9701,1.10000,0.90000,1.10000,0.90000
  2132,'HASKELL 2   ', 115.0000,1,   2,  10,   1,1.03000, -73.7319,1.10000,0.90000,1.10000,0.90000
  2133,'SAINT JO 0  ', 161.0000,1,   2,  11,   1,1.02455, -81.5208,1.10000,0.90000,1.10000,0.90000
  3001,'KERRVILLE 0 ', 230.0000,1,   3,  28,   1,1.00152, -83.6814,1.10000,0.90000,1.10000,0.90000
  3002,'KERRVILLE 1 ', 115.0000,1,   3,  28,   1,0.99033, -86.8742,1.10000,0.90000,1.10000,0.90000
  3003,'SWEETWATER~4', 115.0000,1,   3,  27,   1,1.01838, -61.9799,1.10000,0.90000,1.10000,0.90000
  3004,'SWEETWATER~5',  18.0000,1,   3,  27,   1,1.01334, -61.2076,1.10000,0.90000,1.10000,0.90000
  3005,'LEAKEY 0    ', 115.0000,1,   3,  28,   1,0.95743, -98.1577,1.10000,0.90000,1.10000,0.90000
  3006,'HAMLIN 0    ', 115.0000,1,   3,  27,   1,1.01902, -67.3290,1.10000,0.90000,1.10000,0.90000
  3007,'MERKEL 3 0  ', 115.0000,1,   3,  27,   1,1.02677, -66.2555,1.10000,0.90000,1.10000,0.90000
  3008,'COLEMAN 0   ', 115.0000,1,   3,  27,   1,1.02116, -73.8659,1.10000,0.90000,1.10000,0.90000
  3009,'SONORA 0    ', 115.0000,1,   3,  28,   1,1.02542, -69.9353,1.10000,0.90000,1.10000,0.90000
  3010,'CAMP WOOD 0 ', 115.0000,1,   3,  28,   1,0.98496, -96.9489,1.10000,0.90000,1.10000,0.90000
  3011,'LLANO 0     ', 115.0000,1,   3,  28,   1,0.97524, -91.5355,1.10000,0.90000,1.10000,0.90000
  3012,'WILLOW CIT~1', 115.0000,1,   3,  28,   1,0.96062, -92.9606,1.10000,0.90000,1.10000,0.90000
  3013,'ABILENE 4 0 ', 115.0000,1,   3,  27,   1,1.03000, -69.2361,1.10000,0.90000,1.10000,0.90000
  3014,'KINGSLAND 0 ', 115.0000,1,   3,  28,   1,1.01446, -81.1617,1.10000,0.90000,1.10000,0.90000
  3015,'ROSCOE 6 0  ', 115.0000,1,   3,  27,   1,1.01670, -60.9994,1.10000,0.90000,1.10000,0.90000
  3016,'BLACKWELL 0 ', 115.0000,1,   3,  27,   1,1.01845, -64.6020,1.10000,0.90000,1.10000,0.90000
  3017,'BLACKWELL 1 ',  18.0000,2,   3,  27,   1,1.01000, -62.0984,1.10000,0.90000,1.10000,0.90000
  3018,'CHRISTOVAL 0', 230.0000,1,   3,  27,   1,1.03000, -67.8616,1.10000,0.90000,1.10000,0.90000
  3019,'CHRISTOVAL 1', 115.0000,1,   3,  27,   1,1.03000, -69.2867,1.10000,0.90000,1.10000,0.90000
  3020,'CHRISTOVAL 2',  13.8000,2,   3,  27,   1,1.03000, -65.8708,1.10000,0.90000,1.10000,0.90000
  3021,'LUEDERS 0   ', 115.0000,1,   3,  27,   1,1.01950, -71.7106,1.10000,0.90000,1.10000,0.90000
  3022,'COLORADO C~1', 115.0000,1,   3,  27,   1,1.01006, -62.3890,1.10000,0.90000,1.10000,0.90000
  3023,'STAMFORD 0  ', 115.0000,1,   3,  27,   1,1.03000, -67.8833,1.10000,0.90000,1.10000,0.90000
  3024,'ELDORADO 0  ', 115.0000,1,   3,  28,   1,1.02676, -69.8079,1.10000,0.90000,1.10000,0.90000
  3025,'SAN SABA 0  ', 115.0000,1,   3,  28,   1,1.02186, -76.5527,1.10000,0.90000,1.10000,0.90000
  3026,'ABILENE 2 0 ', 230.0000,1,   3,  27,   1,1.03455, -70.2922,1.10000,0.90000,1.10000,0.90000
  3027,'ABILENE 2 1 ', 115.0000,1,   3,  27,   1,1.02664, -72.0716,1.10000,0.90000,1.10000,0.90000
  3028,'ABILENE 2 2 ',  18.0000,2,   3,  27,   1,1.04000, -69.5360,1.10000,0.90000,1.10000,0.90000
  3029,'LOMETA 0    ', 115.0000,1,   3,  28,   1,1.02538, -80.8377,1.10000,0.90000,1.10000,0.90000
  3030,'SAN ANGELO~1', 115.0000,1,   3,  27,   1,1.02624, -78.0793,1.10000,0.90000,1.10000,0.90000
  3031,'TUSCOLA 0   ', 115.0000,1,   3,  27,   1,1.01724, -66.7920,1.10000,0.90000,1.10000,0.90000
  3032,'ABILENE 7 0 ', 115.0000,1,   3,  27,   1,1.01362, -68.1777,1.10000,0.90000,1.10000,0.90000
  3033,'SNYDER 1 0  ', 115.0000,1,   3,  27,   1,1.01316, -62.6941,1.10000,0.90000,1.10000,0.90000
  3034,'SNYDER 1 1  ',  22.0000,2,   3,  27,   1,1.03000, -59.3875,1.10000,0.90000,1.10000,0.90000
  3035,'CHEROKEE 0  ', 115.0000,1,   3,  28,   1,1.02308, -76.8817,1.10000,0.90000,1.10000,0.90000
  3036,'RICHLAND S~1', 115.0000,1,   3,  28,   1,1.02173, -75.8997,1.10000,0.90000,1.10000,0.90000
  3037,'ROSCOE 2 0  ', 230.0000,1,   3,  27,   1,1.03510, -64.5200,1.10000,0.90000,1.10000,0.90000
  3038,'ROSCOE 2 1  ', 115.0000,1,   3,  27,   1,1.01816, -62.4581,1.10000,0.90000,1.10000,0.90000
  3039,'ROSCOE 2 2  ',  13.8000,2,   3,  27,   1,1.04000, -63.2829,1.10000,0.90000,1.10000,0.90000
  3040,'BALLINGER 0 ', 115.0000,1,   3,  27,   1,1.01124, -73.6363,1.10000,0.90000,1.10000,0.90000
  3041,'SILVER 0    ', 230.0000,1,   3,  27,   1,1.03371, -63.2769,1.10000,0.90000,1.10000,0.90000
  3042,'SILVER 1    ', 115.0000,1,   3,  27,   1,1.01517, -58.2769,1.10000,0.90000,1.10000,0.90000
  3043,'SILVER 2    ',  13.8000,2,   3,  27,   1,1.03371, -63.2769,1.10000,0.90000,1.10000,0.90000
  3044,'SILVER 3    ',  13.8000,2,   3,  27,   1,1.03371, -63.2769,1.10000,0.90000,1.10000,0.90000
  3045,'SILVER 4    ',  13.8000,2,   3,  27,   1,1.04000, -59.0671,1.10000,0.90000,1.10000,0.90000
  3046,'ROSCOE 5 0  ', 230.0000,1,   3,  27,   1,1.03229, -67.0487,1.10000,0.90000,1.10000,0.90000
  3047,'ROSCOE 5 1  ', 115.0000,1,   3,  27,   1,1.03000, -61.8639,1.10000,0.90000,1.10000,0.90000
  3048,'ROSCOE 5 2  ', 500.0000,2,   3,  27,   1,1.04000, -69.9687,1.10000,0.90000,1.10000,0.90000
  3049,'ANSON 0     ', 115.0000,1,   3,  27,   1,1.02089, -69.0686,1.10000,0.90000,1.10000,0.90000
  3050,'DEL RIO 0   ', 230.0000,1,   3,  28,   1,1.01892, -71.8198,1.10000,0.90000,1.10000,0.90000
  3051,'DEL RIO 1   ', 115.0000,1,   3,  28,   1,1.00968, -73.2646,1.10000,0.90000,1.10000,0.90000
  3052,'HUNT 0      ', 115.0000,1,   3,  28,   1,0.97793, -93.7296,1.10000,0.90000,1.10000,0.90000
  3053,'WINGATE 0   ', 230.0000,1,   3,  27,   1,1.03410, -64.6493,1.10000,0.90000,1.10000,0.90000
  3054,'WINGATE 1   ', 115.0000,1,   3,  27,   1,1.02672, -66.0017,1.10000,0.90000,1.10000,0.90000
  3055,'WINGATE 2   ',  13.8000,2,   3,  27,   1,1.04000, -63.2624,1.10000,0.90000,1.10000,0.90000
  3056,'WINGATE 3   ',  13.8000,2,   3,  27,   1,1.04000, -62.0223,1.10000,0.90000,1.10000,0.90000
  3057,'WINGATE 4   ',  13.8000,2,   3,  27,   1,1.04000, -62.1014,1.10000,0.90000,1.10000,0.90000
  3058,'STERLING C~1', 230.0000,1,   3,  27,   1,1.03444, -61.3290,1.10000,0.90000,1.10000,0.90000
  3059,'STERLING C~2', 115.0000,1,   3,  27,   1,1.01911, -57.0587,1.10000,0.90000,1.10000,0.90000
  3060,'STERLING C~3',  18.0000,2,   3,  27,   1,1.04000, -57.6884,1.10000,0.90000,1.10000,0.90000
  3061,'STERLING C~4',  18.0000,2,   3,  27,   1,1.04000, -58.7310,1.10000,0.90000,1.10000,0.90000
  3062,'STERLING C~5',  18.0000,2,   3,  27,   1,1.04000, -60.0219,1.10000,0.90000,1.10000,0.90000
  3063,'STERLING C~6',  18.0000,2,   3,  27,   1,1.04000, -59.4662,1.10000,0.90000,1.10000,0.90000
  3064,'ROSCOE 4 0  ', 115.0000,1,   3,  27,   1,1.02246, -60.7208,1.10000,0.90000,1.10000,0.90000
  3065,'ROSCOE 4 1  ',  18.0000,1,   3,  27,   1,1.01056, -58.5337,1.10000,0.90000,1.10000,0.90000
  3066,'BRADY 0     ', 115.0000,1,   3,  28,   1,1.02249, -77.1118,1.10000,0.90000,1.10000,0.90000
  3067,'TRENT 1 0   ', 115.0000,1,   3,  27,   1,1.02880, -63.5110,1.10000,0.90000,1.10000,0.90000
  3068,'TRENT 1 1   ',  20.0000,2,   3,  27,   1,1.04000, -62.1211,1.10000,0.90000,1.10000,0.90000
  3069,'OVALO 0     ', 115.0000,1,   3,  27,   1,1.01672, -69.3890,1.10000,0.90000,1.10000,0.90000
  3070,'NOLAN 0     ', 115.0000,1,   3,  27,   1,1.02086, -64.4406,1.10000,0.90000,1.10000,0.90000
  3071,'NOLAN 1     ',  24.0000,2,   3,  27,   1,1.00672, -62.2126,1.10000,0.90000,1.10000,0.90000
  3072,'MILES 0     ', 115.0000,1,   3,  27,   1,1.02142, -76.6664,1.10000,0.90000,1.10000,0.90000
  3073,'BRACKETTVI~3', 115.0000,1,   3,  28,   1,0.99064, -97.9042,1.10000,0.90000,1.10000,0.90000