1004, 'GENSAL' ,1,7.0,0.03,0.035,3.0,1.0,1.2,0.8,0.22,0.2,0.16,0.05,0.3 /
1004, 'EXDC1' ,1,0.0,40.0,0.1,0.0,0.0,1.0,-1.0,0.1,0.5,0.05,0.7,0.0,2.8,0.08,3.7,0.33 /
1004, 'WSIEG1' ,1,0,0,25.0,0.0,0.0,0.1,1.0,-10.0,1.01,0.0,0.3,1.0,0.0,0.0,0.0,0.0,0.0,0.0,0.0,0.0,0.0,0.0,0.0,0.0,0.0,0.0,0.0,0.0,0.0,0.0,0.0,0.0,0.0,0.0,0.0,0 /
1009, 'GENSAL' ,1,7.0,0.03,0.035,3.0,1.0,1.2,0.8,0.22,0.2,0.16,0.05,0.3 /
1009, 'EXDC1' ,1,0.0,40.0,0.1,0.0,0.0,1.0,-1.0,0.1,0.5,0.05,0.7,0.0,2.8,0.08,3.7,0.33 /
1009, 'WSIEG1' ,1,0,0,25.0,0.0,0.0,0.1,1.0,-10.0,1.01,0.0,0.3,1.0,0.0,0.0,0.0,0.0,0.0,0.0,0.0,0.0,0.0,0.0,0.0,0.0,0.0,0.0,0.0,0.0,0.0,0.0,0.0,0.0,0.0,0.0,0.0,0 /
1021, 'GENSAL' ,1,7.0,0.03,0.035,3.0,1.0,1.2,0.8,0.22,0.2,0.16,0.05,0.3 /
1021, 'EXDC1' ,1,0.0,40.0,0.1,0.0,0.0,1.0,-1.0,0.1,0.5,0.05,0.7,0.0,2.8,0.08,3.7,0.33 /
1021, 'WSIEG1' ,1,0,0,25.0,0.0,0.0,0.1,1.0,-10.0,1.01,0.0,0.3,1.0,0.0,0.0,0.0,0.0,0.0,0.0,0.0,0.0,0.0,0.0,0.0,0.0,0.0,0.0,0.0,0.0,0.0,0.0,0.0,0.0,0.0,0.0,0.0,0 /
1023, 'GENSAL' ,1,7.0,0.03,0.035,3.0,1.0,1.2,0.8,0.22,0.2,0.16,0.05,0.3 /
1023, 'EXDC1' ,1,0.0,40.0,0.1,0.0,0.0,1.0,-1.0,0.1,0.5,0.05,0.7,0.0,2.8,0.08,3.7,0.33 /
1023, 'WSIEG1' ,1,0,0,25.0,0.0,0.0,0.1,1.0,-10.0,1.01,0.0,0.3,1.0,0.0,0.0,0.0,0.0,0.0,0.0,0.0,0.0,0.0,0.0,0.0,0.0,0.0,0.0,0.0,0.0,0.0,0.0,0.0,0.0,0.0,0.0,0.0,0 /
1026, 'GENSAL' ,1,7.0,0.03,0.035,3.0,1.0,1.2,0.8,0.22,0.2,0.16,0.05,0.3 /
1026, 'EXDC1' ,1,0.0,40.0,0.1,0.0,0.0,1.0,-1.0,0.1,0.5,0.05,0.7,0.0,2.8,0.08,3.7,0.33 /
1026, 'WSIEG1' ,1,0,0,25.0,0.0,0.0,0.1,1.0,-10.0,1.01,0.0,0.3,1.0,0.0,0.0,0.0,0.0,0.0,0.0,0.0,0.0,0.0,0.0,0.0,0.0,0.0,0.0,0.0,0.0,0.0,0.0,0.0,0.0,0.0,0.0,0.0,0 /
1033, 'GENSAL' ,1,7.0,0.03,0.035,3.0,1.0,1.2,0.8,0.22,0.2,0.16,0.05,0.3 /
1033, 'EXDC1' ,1,0.0,40.0,0.1,0.0,0.0,1.0,-1.0,0.1,0.5,0.05,0.7,0.0,2.8,0.08,3.7,0.33 /
1033, 'WSIEG1' ,1,0,0,25.0,0.0,0.0,0.1,1.0,-10.0,1.01,0.0,0.3,1.0,0.0,0.0,0.0,0.0,0.0,0.0,0.0,0.0,0.0,0.0,0.0,0.0,0.0,0.0,0.0,0.0,0.0,0.0,0.0,0.0,0.0,0.0,0.0,0 /
1035, 'GENSAL' ,1,7.0,0.03,0.035,3.0,1.0,1.2,0.8,0.22,0.2,0.16,0.05,0.3 /
1035, 'EXDC1' ,1,0.0,40.0,0.1,0.0,0.0,1.0,-1.0,0.1,0.5,0.05,0.7,0.0,2.8,0.08,3.7,0.33 /
1035, 'WSIEG1' ,1,0,0,25.0,0.0,0.0,0.1,1.0,-10.0,1.01,0.0,0.3,1.0,0.0,0.0,0.0,0.0,0.0,0.0,0.0,0.0,0.0,0.0,0.0,0.0,0.0,0.0,0.0,0.0,0.0,0.0,0.0,0.0,0.0,0.0,0.0,0 /
1039, 'GENSAL' ,1,7.0,0.03,0.035,3.0,1.0,1.2,0.8,0.22,0.2,0.16,0.05,0.3 /
1039, 'EXDC1' ,1,0.0,40.0,0.1,0.0,0.0,1.0,-1.0,0.1,0.5,0.05,0.7,0.0,2.8,0.08,3.7,0.33 /
1039, 'WSIEG1' ,1,0,0,25.0,0.0,0.0,0.1,1.0,-10.0,1.01,0.0,0.3,1.0,0.0,0.0,0.0,0.0,0.0,0.0,0.0,0.0,0.0,0.0,0.0,0.0,0.0,0.0,0.0,0.0,0.0,0.0,0.0,0.0,0.0,0.0,0.0,0 /
1042, 'GENSAL' ,1,7.0,0.03,0.035,3.0,1.0,1.2,0.8,0.22,0.2,0.16,0.05,0.3 /
1042, 'EXDC1' ,1,0.0,40.0,0.1,0.0,0.0,1.0,-1.0,0.1,0.5,0.05,0.7,0.0,2.8,0.08,3.7,0.33 /
1042, 'WSIEG1' ,1,0,0,25.0,0.0,0.0,0.1,1.0,-10.0,1.01,0.0,0.3,1.0,0.0,0.0,0.0,0.0,0.0,0.0,0.0,0.0,0.0,0.0,0.0,0.0,0.0,0.0,0.0,0.0,0.0,0.0,0.0,0.0,0.0,0.0,0.0,0 /
1043, 'GENSAL' ,1,7.0,0.03,0.035,3.0,1.0,1.2,0.8,0.22,0.2,0.16,0.05,0.3 /
1043, 'EXDC1' ,1,0.0,40.0,0.1,0.0,0.0,1.0,-1.0,0.1,0.5,0.05,0.7,0.0,2.8,0.08,3.7,0.33 /
1043, 'WSIEG1' ,1,0,0,25.0,0.0,0.0,0.1,1.0,-10.0,1.01,0.0,0.3,1.0,0.0,0.0,0.0,0.0,0.0,0.0,0.0,0.0,0.0,0.0,0.0,0.0,0.0,0.0,0.0,0.0,0.0,0.0,0.0,0.0,0.0,0.0,0.0,0 /
1048, 'GENSAL' ,1,7.0,0.03,0.035,3.0,1.0,1.2,0.8,0.22,0.2,0.16,0.05,0.3 /
1048, 'EXDC1' ,1,0.0,40.0,0.1,0.0,0.0,1.0,-1.0,0.1,0.5,0.05,0.7,0.0,2.8,0.08,3.7,0.33 /
1048, 'WSIEG1' ,1,0,0,25.0,0.0,0.0,0.1,1.0,-10.0,1.01,0.0,0.3,1.0,0.0,0.0,0.0,0.0,0.0,0.0,0.0,0.0,0.0,0.0,0.0,0.0,0.0,0.0,0.0,0.0,0.0,0.0,0.0,0.0,0.0,0.0,0.0,0 /
1049, 'GENSAL' ,1,7.0,0.03,0.035,3.0,1.0,1.2,0.8,0.22,0.2,0.16,0.05,0.3 /
1049, 'EXDC1' ,1,0.0,40.0,0.1,0.0,0.0,1.0,-1.0,0.1,0.5,0.05,0.7,0.0,2.8,0.08,3.7,0.33 /
1049, 'WSIEG1' ,1,0,0,25.0,0.0,0.0,0.1,1.0,-10.0,1.01,0.0,0.3,1.0,0.0,0.0,0.0,0.0,0.0,0.0,0.0,0.0,0.0,0.0,0.0,0.0,0.0,0.0,0.0,0.0,0.0,0.0,0.0,0.0,0.0,0.0,0.0,0 /
1053, 'GENSAL' ,1,7.0,0.03,0.035,3.0,1.0,1.2,0.8,0.22,0.2,0.16,0.05,0.3 /
1053, 'EXDC1' ,1,0.0,40.0,0.1,0.0,0.0,1.0,-1.0,0.1,0.5,0.05,0.7,0.0,2.8,0.08,3.7,0.33 /
1053, 'WSIEG1' ,1,0,0,25.0,0.0,0.0,0.1,1.0,-10.0,1.01,0.0,0.3,1.0,0.0,0.0,0.0,0.0,0.0,0.0,0.0,0.0,0.0,0.0,0.0,0.0,0.0,0.0,0.0,0.0,0.0,0.0,0.0,0.0,0.0,0.0,0.0,0 /
1057, 'GENSAL' ,1,7.0,0.03,0.035,3.0,1.0,1.2,0.8,0.22,0.2,0.16,0.05,0.3 /
1057, 'EXDC1' ,1,0.0,40.0,0.1,0.0,0.0,1.0,-1.0,0.1,0.5,0.05,0.7,0.0,2.8,0.08,3.7,0.33 /
1057, 'WSIEG1' ,1,0,0,25.0,0.0,0.0,0.1,1.0,-10.0,1.01,0.0,0.3,1.0,0.0,0.0,0.0,0.0,0.0,0.0,0.0,0.0,0.0,0.0,0.0,0.0,0.0,0.0,0.0,0.0,0.0,0.0,0.0,0.0,0.0,0.0,0.0,0 /
1063, 'GENSAL' ,1,7.0,0.03,0.035,3.0,1.0,1.2,0.8,0.22,0.2,0.16,0.05,0.3 /
1063, 'EXDC1' ,1,0.0,40.0,0.1,0.0,0.0,1.0,-1.0,0.1,0.5,0.05,0.7,0.0,2.8,0.08,3.7,0.33 /
1063, 'WSIEG1' ,1,0,0,25.0,0.0,0.0,0.1,1.0,-10.0,1.01,0.0,0.3,1.0,0.0,0.0,0.0,0.0,0.0,0.0,0.0,0.0,0.0,0.0,0.0,0.0,0.0,0.0,0.0,0.0,0.0,0.0,0.0,0.0,0.0,0.0,0.0,0 /
1066, 'GENSAL' ,1,7.0,0.03,0.035,3.0,1.0,1.2,0.8,0.22,0.2,0.16,0.05,0.3 /
1066, 'EXDC1' ,1,0.0,40.0,0.1,0.0,0.0,1.0,-1.0,0.1,0.5,0.05,0.7,0.0,2.8,0.08,3.7,0.33 /
1066, 'WSIEG1' ,1,0,0,25.0,0.0,0.0,0.1,1.0,-10.0,1.01,0.0,0.3,1.0,0.0,0.0,0.0,0.0,0.0,0.0,0.0,0.0,0.0,0.0,0.0,0.0,0.0,0.0,0.0,0.0,0.0,0.0,0.0,0.0,0.0,0.0,0.0,0 /
1070, 'GENSAL' ,1,7.0,0.03,0.035,3.0,1.0,1.2,0.8,0.22,0.2,0.16,0.05,0.3 /
1070, 'EXDC1' ,1,0.0,40.0,0.1,0.0,0.0,1.0,-1.0,0.1,0.5,0.05,0.7,0.0,2.8,0.08,3.7,0.33 /
1070, 'WSIEG1' ,1,0,0,25.0,0.0,0.0,0.1,1.0,-10.0,1.01,0.0,0.3,1.0,0.0,0.0,0.0,0.0,0.0,0.0,0.0,0.0,0.0,0.0,0.0,0.0,0.0,0.0,0.0,0.0,0.0,0.0,0.0,0.0,0.0,0.0,0.0,0 /
1072, 'GENSAL' ,1,7.0,0.03,0.035,3.0,1.0,1.2,0.8,0.22,0.2,0.16,0.05,0.3 /
1072, 'EXDC1' ,1,0.0,40.0,0.1,0.0,0.0,1.0,-1.0,0.1,0.5,0.05,0.7,0.0,2.8,0.08,3.7,0.33 /
1072, 'WSIEG1' ,1,0,0,25.0,0.0,0.0,0.1,1.0,-10.0,1.01,0.0,0.3,1.0,0.0,0.0,0.0,0.0,0.0,0.0,0.0,0.0,0.0,0.0,0.0,0.0,0.0,0.0,0.0,0.0,0.0,0.0,0.0,0.0,0.0,0.0,0.0,0 /
1073, 'GENSAL' ,1,7.0,0.03,0.035,3.0,1.0,1.2,0.8,0.22,0.2,0.16,0.05,0.3 /
1073, 'EXDC1' ,1,0.0,40.0,0.1,0.0,0.0,1.0,-1.0,0.1,0.5,0.05,0.7,0.0,2.8,0.08,3.7,0.33 /
1073, 'WSIEG1' ,1,0,0,25.0,0.0,0.0,0.1,1.0,-10.0,1.01,0.0,0.3,1.0,0.0,0.0,0.0,0.0,0.0,0.0,0.0,0.0,0.0,0.0,0.0,0.0,0.0,0.0,0.0,0.0,0.0,0.0,0.0,0.0,0.0,0.0,0.0,0 /
1074, 'GENSAL' ,1,7.0,0.03,0.035,3.0,1.0,1.2,0.8,0.22,0.2,0.16,0.05,0.3 /
1074, 'EXDC1' ,1,0.0,40.0,0.1,0.0,0.0,1.0,-1.0,0.1,0.5,0.05,0.7,0.0,2.8,0.08,3.7,0.33 /
1074, 'WSIEG1' ,1,0,0,25.0,0.0,0.0,0.1,1.0,-10.0,1.01,0.0,0.3,1.0,0.0,0.0,0.0,0.0,0.0,0.0,0.0,0.0,0.0,0.0,0.0,0.0,0.0,0.0,0.0,0.0,0.0,0.0,0.0,0.0,0.0,0.0,0.0,0 /
1075, 'GENSAL' ,1,7.0,0.03,0.035,3.0,1.0,1.2,0.8,0.22,0.2,0.16,0.05,0.3 /
1075, 'EXDC1' ,1,0.0,40.0,0.1,0.0,0.0,1.0,-1.0,0.1,0.5,0.05,0.7,0.0,2.8,0.08,3.7,0.33 /
1075, 'WSIEG1' ,1,0,0,25.0,0.0,0.0,0.1,1.0,-10.0,1.01,0.0,0.3,1.0,0.0,0.0,0.0,0.0,0.0,0.0,0.0,0.0,0.0,0.0,0.0,0.0,0.0,0.0,0.0,0.0,0.0,0.0,0.0,0.0,0.0,0.0,0.0,0 /
1076, 'GENSAL' ,1,7.0,0.03,0.035,3.0,1.0,1.2,0.8,0.22,0.2,0.16,0.05,0.3 /
1076, 'EXDC1' ,1,0.0,40.0,0.1,0.0,0.0,1.0,-1.0,0.1,0.5,0.05,0.7,0.0,2.8,0.08,3.7,0.33 /
1076, 'WSIEG1' ,1,0,0,25.0,0.0,0.0,0.1,1.0,-10.0,1.01,0.0,0.3,1.0,0.0,0.0,0.0,0.0,0.0,0.0,0.0,0.0,0.0,0.0,0.0,0.0,0.0,0.0,0.0,0.0,0.0,0.0,0.0,0.0,0.0,0.0,0.0,0 /
1077, 'GENSAL' ,1,7.0,0.03,0.035,3.0,1.0,1.2,0.8,0.22,0.2,0.16,0.05,0.3 /
1077, 'EXDC1' ,1,0.0,40.0,0.1,0.0,0.0,1.0,-1.0,0.1,0.5,0.05,0.7,0.0,2.8,0.08,3.7,0.33 /
1077, 'WSIEG1' ,1,0,0,25.0,0.0,0.0,0.1,1.0,-10.0,1.01,0.0,0.3,1.0,0.0,0.0,0.0,0.0,0.0,0.0,0.0,0.0,0.0,0.0,0.0,0.0,0.0,0.0,0.0,0.0,0.0,0.0,0.0,0.0,0.0,0.0,0.0,0 /
1081, 'GENSAL' ,1,7.0,0.03,0.035,3.0,1.0,1.2,0.8,0.22,0.2,0.16,0.05,0.3 /
1081, 'EXDC1' ,1,0.0,40.0,0.1,0.0,0.0,1.0,-1.0,0.1,0.5,0.05,0.7,0.0,2.8,0.08,3.7,0.33 /
1081, 'WSIEG1' ,1,0,0,25.0,0.0,0.0,0.1,1.0,-10.0,1.01,0.0,0.3,1.0,0.0,0.0,0.0,0.0,0.0,0.0,0.0,0.0,0.0,0.0,0.0,0.0,0.0,0.0,0.0,0.0,0.0,0.0,0.0,0.0,0.0,0.0,0.0,0 /
1082, 'GENSAL' ,1,7.0,0.03,0.035,3.0,1.0,1.2,0.8,0.22,0.2,0.16,0.05,0.3 /
1082, 'EXDC1' ,1,0.0,40.0,0.1,0.0,0.0,1.0,-1.0,0.1,0.5,0.05,0.7,0.0,2.8,0.08,3.7,0.33 /
1082, 'WSIEG1' ,1,0,0,25.0,0.0,0.0,0.1,1.0,-10.0,1.01,0.0,0.3,1.0,0.0,0.0,0.0,0.0,0.0,0.0,0.0,0.0,0.0,0.0,0.0,0.0,0.0,0.0,0.0,0.0,0.0,0.0,0.0,0.0,0.0,0.0,0.0,0 /
1084, 'GENSAL' ,1,7.0,0.03,0.035,3.0,1.0,1.2,0.8,0.22,0.2,0.16,0.05,0.3 /
1084, 'EXDC1' ,1,0.0,40.0,0.1,0.0,0.0,1.0,-1.0,0.1,0.5,0.05,0.7,0.0,2.8,0.08,3.7,0.33 /
1084, 'WSIEG1' ,1,0,0,25.0,0.0,0.0,0.1,1.0,-10.0,1.01,0.0,0.3,1.0,0.0,0.0,0.0,0.0,0.0,0.0,0.0,0.0,0.0,0.0,0.0,0.0,0.0,0.0,0.0,0.0,0.0,0.0,0.0,0.0,0.0,0.0,0.0,0 /
1088, 'GENSAL' ,1,7.0,0.03,0.035,3.0,1.0,1.2,0.8,0.22,0.2,0.16,0.05,0.3 /
1088, 'EXDC1' ,1,0.0,40.0,0.1,0.0,0.0,1.0,-1.0,0.1,0.5,0.05,0.7,0.0,2.8,0.08,3.7,0.33 /
1088, 'WSIEG1' ,1,0,0,25.0,0.0,0.0,0.1,1.0,-10.0,1.01,0.0,0.3,1.0,0.0,0.0,0.0,0.0,0.0,0.0,0.0,0.0,0.0,0.0,0.0,0.0,0.0,0.0,0.0,0.0,0.0,0.0,0.0,0.0,0.0,0.0,0.0,0 /
1090, 'GENSAL' ,1,7.0,0.03,0.035,3.0,1.0,1.2,0.8,0.22,0.2,0.16,0.05,0.3 /
1090, 'EXDC1' ,1,0.0,40.0,0.1,0.0,0.0,1.0,-1.0,0.1,0.5,0.05,0.7,0.0,2.8,0.08,3.7,0.33 /
1090, 'WSIEG1' ,1,0,0,25.0,0.0,0.0,0.1,1.0,-10.0,1.01,0.0,0.3,1.0,0.0,0.0,0.0,0.0,0.0,0.0,0.0,0.0,0.0,0.0,0.0,0.0,0.0,0.0,0.0,0.0,0.0,0.0,0.0,0.0,0.0,0.0,0.0,0 /
2004, 'GENSAL' ,1,7.0,0.03,0.035,3.0,1.0,1.2,0.8,0.22,0.2,0.16,0.05,0.3 /
2004, 'EXDC1' ,1,0.0,40.0,0.1,0.0,0.0,1.0,-1.0,0.1,0.5,0.05,0.7,0.0,2.8,0.08,3.7,0.33 /
2004, 'WSIEG1' ,1,0,0,25.0,0.0,0.0,0.1,1.0,-10.0,1.01,0.0,0.3,1.0,0.0,0.0,0.0,0.0,0.0,0.0,0.0,0.0,0.0,0.0,0.0,0.0,0.0,0.0,0.0,0.0,0.0,0.0,0.0,0.0,0.0,0.0,0.0,0 /
2005, 'GENSAL' ,1,7.0,0.03,0.035,3.0,1.0,1.2,0.8,0.22,0.2,0.16,0.05,0.3 /
2005, 'EXDC1' ,1,0.0,40.0,0.1,0.0,0.0,1.0,-1.0,0.1,0.5,0.05,0.7,0.0,2.8,0.08,3.7,0.33 /
2005, 'WSIEG1' ,1,0,0,25.0,0.0,0.0,0.1,1.0,-10.0,1.01,0.0,0.3,1.0,0.0,0.0,0.0,0.0,0.0,0.0,0.0,0.0,0.0,0.0,0.0,0.0,0.0,0.0,0.0,0.0,0.0,0.0,0.0,0.0,0.0,0.0,0.0,0 /
2006, 'GENSAL' ,1,7.0,0.03,0.035,3.0,1.0,1.2,0.8,0.22,0.2,0.16,0.05,0.3 /
2006, 'EXDC1' ,1,0.0,40.0,0.1,0.0,0.0,1.0,-1.0,0.1,0.5,0.05,0.7,0.0,2.8,0.08,3.7,0.33 /
2006, 'WSIEG1' ,1,0,0,25.0,0.0,0.0,0.1,1.0,-10.0,1.01,0.0,0.3,1.0,0.0,0.0,0.0,0.0,0.0,0.0,0.0,0.0,0.0,0.0,0.0,0.0,0.0,0.0,0.0,0.0,0.0,0.0,0.0,0.0,0.0,0.0,0.0,0 /
2013, 'GENSAL' ,1,7.0,0.03,0.035,3.0,1.0,1.2,0.8,0.22,0.2,0.16,0.05,0.3 /
2013, 'EXDC1' ,1,0.0,40.0,0.1,0.0,0.0,1.0,-1.0,0.1,0.5,0.05,0.7,0.0,2.8,0.08,3.7,0.33 /
2013, 'WSIEG1' ,1,0,0,25.0,0.0,0.0,0.1,1.0,-10.0,1.01,0.0,0.3,1.0,0.0,0.0,0.0,0.0,0.0,0.0,0.0,0.0,0.0,0.0,0.0,0.0,0.0,0.0,0.0,0.0,0.0,0.0,0.0,0.0,0.0,0.0,0.0,0 /
2019, 'GENSAL' ,1,7.0,0.03,0.035,3.0,1.0,1.2,0.8,0.22,0.2,0.16,0.05,0.3 /
2019, 'EXDC1' ,1,0.0,40.0,0.1,0.0,0.0,1.0,-1.0,0.1,0.5,0.05,0.7,0.0,2.8,0.08,3.7,0.33 /
2019, 'WSIEG1' ,1,0,0,25.0,0.0,0.0,0.1,1.0,-10.0,1.01,0.0,0.3,1.0,0.0,0.0,0.0,0.0,0.0,0.0,0.0,0.0,0.0,0.0,0.0,0.0,0.0,0.0,0.0,0.0,0.0,0.0,0.0,0.0,0.0,0.0,0.0,0 /
2024, 'GENSAL' ,1,7.0,0.03,0.035,3.0,1.0,1.2,0.8,0.22,0.2,0.16,0.05,0.3 /
2024, 'EXDC1' ,1,0.0,40.0,0.1,0.0,0.0,1.0,-1.0,0.1,0.5,0.05,0.7,0.0,2.8,0.08,3.7,0.33 /
2024, 'WSIEG1' ,1,0,0,25.0,0.0,0.0,0.1,1.0,-10.0,1.01,0.0,0.3,1.0,0.0,0.0,0.0,0.0,0.0,0.0,0.0,0.0,0.0,0.0,0.0,0.0,0.0,0.0,0.0,0.0,0.0,0.0,0.0,0.0,0.0,0.0,0.0,0 /
2042, 'GENSAL' ,1,7.0,0.03,0.035,3.0,1.0,1.2,0.8,0.22,0.2,0.16,0.05,0.3 /
2042, 'EXDC1' ,1,0.0,40.0,0.1,0.0,0.0,1.0,-1.0,0.1,0.5,0.05,0.7,0.0,2.8,0.08,3.7,0.33 /
2042, 'WSIEG1' ,1,0,0,25.0,0.0,0.0,0.1,1.0,-10.0,1.01,0.0,0.3,1.0,0.0,0.0,0.0,0.0,0.0,0.0,0.0,0.0,0.0,0.0,0.0,0.0,0.0,0.0,0.0,0.0,0.0,0.0,0.0,0.0,0.0,0.0,0.0,0 /
2057, 'GENSAL' ,1,7.0,0.03,0.035,3.0,1.0,1.2,0.8,0.22,0.2,0.16,0.05,0.3 /
2057, 'EXDC1' ,1,0.0,40.0,0.1,0.0,0.0,1.0,-1.0,0.1,0.5,0.05,0.7,0.0,2.8,0.08,3.7,0.33 /
2057, 'WSIEG1' ,1,0,0,25.0,0.0,0.0,0.1,1.0,-10.0,1.01,0.0,0.3,1.0,0.0,0.0,0.0,0.0,0.0,0.0,0.0,0.0,0.0,0.0,0.0,0.0,0.0,0.0,0.0,0.0,0.0,0.0,0.0,0.0,0.0,0.0,0.0,0 /
2059, 'GENSAL' ,1,7.0,0.03,0.035,3.0,1.0,1.2,0.8,0.22,0.2,0.16,0.05,0.3 /
2059, 'EXDC1' ,1,0.0,40.0,0.1,0.0,0.0,1.0,-1.0,0.1,0.5,0.05,0.7,0.0,2.8,0.08,3.7,0.33 /
2059, 'WSIEG1' ,1,0,0,25.0,0.0,0.0,0.1,1.0,-10.0,1.01,0.0,0.3,1.0,0.0,0.0,0.0,0.0,0.0,0.0,0.0,0.0,0.0,0.0,0.0,0.0,0.0,0.0,0.0,0.0,0.0,0.0,0.0,0.0,0.0,0.0,0.0,0 /
2062, 'GENSAL' ,1,7.0,0.03,0.035,3.0,1.0,1.2,0.8,0.22,0.2,0.16,0.05,0.3 /
2062, 'EXDC1' ,1,0.0,40.0,0.1,0.0,0.0,1.0,-1.0,0.1,0.5,0.05,0.7,0.0,2.8,0.08,3.7,0.33 /
2062, 'WSIEG1' ,1,0,0,25.0,0.0,0.0,0.1,1.0,-10.0,1.01,0.0,0.3,1.0,0.0,0.0,0.0,0.0,0.0,0.0,0.0,0.0,0.0,0.0,0.0,0.0,0.0,0.0,0.0,0.0,0.0,0.0,0.0,0.0,0.0,0.0,0.0,0 /
2071, 'GENSAL' ,1,7.0,0.03,0.035,3.0,1.0,1.2,0.8,0.22,0.2,0.16,0.05,0.3 /
2071, 'EXDC1' ,1,0.0,40.0,0.1,0.0,0.0,1.0,-1.0,0.1,0.5,0.05,0.7,0.0,2.8,0.08,3.7,0.33 /
2071, 'WSIEG1' ,1,0,0,25.0,0.0,0.0,0.1,1.0,-10.0,1.01,0.0,0.3,1.0,0.0,0.0,0.0,0.0,0.0,0.0,0.0,0.0,0.0,0.0,0.0,0.0,0.0,0.0,0.0,0.0,0.0,0.0,0.0,0.0,0.0,0.0,0.0,0 /
2078, 'GENSAL' ,1,7.0,0.03,0.035,3.0,1.0,1.2,0.8,0.22,0.2,0.16,0.05,0.3 /
2078, 'EXDC1' ,1,0.0,40.0,0.1,0.0,0.0,1.0,-1.0,0.1,0.5,0.05,0.7,0.0,2.8,0.08,3.7,0.33 /
2078, 'WSIEG1' ,1,0,0,25.0,0.0,0.0,0.1,1.0,-10.0,1.01,0.0,0.3,1.0,0.0,0.0,0.0,0.0,0.0,0.0,0.0,0.0,0.0,0.0,0.0,0.0,0.0,0.0,0.0,0.0,0.0,0.0,0.0,0.0,0.0,0.0,0.0,0 /
2089, 'GENSAL' ,1,7.0,0.03,0.035,3.0,1.0,1.2,0.8,0.22,0.2,0.16,0.05,0.3 /
2089, 'EXDC1' ,1,0.0,40.0,0.1,0.0,0.0,1.0,-1.0,0.1,0.5,0.05,0.7,0.0,2.8,0.08,3.7,0.33 /
2089, 'WSIEG1' ,1,0,0,25.0,0.0,0.0,0.1,1.0,-10.0,1.01,0.0,0.3,1.0,0.0,0.0,0.0,0.0,0.0,0.0,0.0,0.0,0.0,0.0,0.0,0.0,0.0,0.0,0.0,0.0,0.0,0.0,0.0,0.0,0.0,0.0,0.0,0 /
2095, 'GENSAL' ,1,7.0,0.03,0.035,3.0,1.0,1.2,0.8,0.22,0.2,0.16,0.05,0.3 /
2095, 'EXDC1' ,1,0.0,40.0,0.1,0.0,0.0,1.0,-1.0,0.1,0.5,0.05,0.7,0.0,2.8,0.08,3.7,0.33 /
2095, 'WSIEG1' ,1,0,0,25.0,0.0,0.0,0.1,1.0,-10.0,1.01,0.0,0.3,1.0,0.0,0.0,0.0,0.0,0.0,0.0,0.0,0.0,0.0,0.0,0.0,0.0,0.0,0.0,0.0,0.0,0.0,0.0,0.0,0.0,0.0,0.0,0.0,0 /
2100, 'GENSAL' ,1,7.0,0.03,0.035,3.0,1.0,1.2,0.8,0.22,0.2,0.16,0.05,0.3 /
2100, 'EXDC1' ,1,0.0,40.0,0.1,0.0,0.0,1.0,-1.0,0.1,0.5,0.05,0.7,0.0,2.8,0.08,3.7,0.33 /
2100, 'WSIEG1' ,1,0,0,25.0,0.0,0.0,0.1,1.0,-10.0,1.01,0.0,0.3,1.0,0.0,0.0,0.0,0.0,0.0,0.0,0.0,0.0,0.0,0.0,0.0,0.0,0.0,0.0,0.0,0.0,0.0,0.0,0.0,0.0,0.0,0.0,0.0,0 /
2103, 'GENSAL' ,1,7.0,0.03,0.035,3.0,1.0,1.2,0.8,0.22,0.2,0.16,0.05,0.3 /
2103, 'EXDC1' ,1,0.0,40.0,0.1,0.0,0.0,1.0,-1.0,0.1,0.5,0.05,0.7,0.0,2.8,0.08,3.7,0.33 /
2103, 'WSIEG1' ,1,0,0,25.0,0.0,0.0,0.1,1.0,-10.0,1.01,0.0,0.3,1.0,0.0,0.0,0.0,0.0,0.0,0.0,0.0,0.0,0.0,0.0,0.0,0.0,0.0,0.0,0.0,0.0,0.0,0.0,0.0,0.0,0.0,0.0,0.0,0 /
2104, 'GENSAL' ,1,7.0,0.03,0.035,3.0,1.0,1.2,0.8,0.22,0.2,0.16,0.05,0.3 /
2104, 'EXDC1' ,1,0.0,40.0,0.1,0.0,0.0,1.0,-1.0,0.1,0.5,0.05,0.7,0.0,2.8,0.08,3.7,0.33 /
2104, 'WSIEG1' ,1,0,0,25.0,0.0,0.0,0.1,1.0,-10.0,1.01,0.0,0.3,1.0,0.0,0.0,0.0,0.0,0.0,0.0,0.0,0.0,0.0,0.0,0.0,0.0,0.0,0.0,0.0,0.0,0.0,0.0,0.0,0.0,0.0,0.0,0.0,0 /
2105, 'GENSAL' ,1,7.0,0.03,0.035,3.0,1.0,1.2,0.8,0.22,0.2,0.16,0.05,0.3 /
2105, 'EXDC1' ,1,0.0,40.0,0.1,0.0,0.0,1.0,-1.0,0.1,0.5,0.05,0.7,0.0,2.8,0.08,3.7,0.33 /
2105, 'WSIEG1' ,1,0,0,25.0,0.0,0.0,0.1,1.0,-10.0,1.01,0.0,0.3,1.0,0.0,0.0,0.0,0.0,0.0,0.0,0.0,0.0,0.0,0.0,0.0,0.0,0.0,0.0,0.0,0.0,0.0,0.0,0.0,0.0,0.0,0.0,0.0,0 /
2115, 'GENSAL' ,1,7.0,0.03,0.035,3.0,1.0,1.2,0.8,0.22,0.2,0.16,0.05,0.3 /
2115, 'EXDC1' ,1,0.0,40.0,0.1,0.0,0.0,1.0,-1.0,0.1,0.5,0.05,0.7,0.0,2.8,0.08,3.7,0.33 /
2115, 'WSIEG1' ,1,0,0,25.0,0.0,0.0,0.1,1.0,-10.0,1.01,0.0,0.3,1.0,0.0,0.0,0.0,0.0,0.0,0.0,0.0,0.0,0.0,0.0,0.0,0.0,0.0,0.0,0.0,0.0,0.0,0.0,0.0,0.0,0.0,0.0,0.0,0 /
2116, 'GENSAL' ,1,7.0,0.03,0.035,3.0,1.0,1.2,0.8,0.22,0.2,0.16,0.05,0.3 /
2116, 'EXDC1' ,1,0.0,40.0,0.1,0.0,0.0,1.0,-1.0,0.1,0.5,0.05,0.7,0.0,2.8,0.08,3.7,0.33 /
2116, 'WSIEG1' ,1,0,0,25.0,0.0,0.0,0.1,1.0,-10.0,1.01,0.0,0.3,1.0,0.0,0.0,0.0,0.0,0.0,0.0,0.0,0.0,0.0,0.0,0.0,0.0,0.0,0.0,0.0,0.0,0.0,0.0,0.0,0.0,0.0,0.0,0.0,0 /
2117, 'GENSAL' ,1,7.0,0.03,0.035,3.0,1.0,1.2,0.8,0.22,0.2,0.16,0.05,0.3 /
2117, 'EXDC1' ,1,0.0,40.0,0.1,0.0,0.0,1.0,-1.0,0.1,0.5,0.05,0.7,0.0,2.8,0.08,3.7,0.33 /
2117, 'WSIEG1' ,1,0,0,25.0,0.0,0.0,0.1,1.0,-10.0,1.01,0.0,0.3,1.0,0.0,0.0,0.0,0.0,0.0,0.0,0.0,0.0,0.0,0.0,0.0,0.0,0.0,0.0,0.0,0.0,0.0,0.0,0.0,0.0,0.0,0.0,0.0,0 /
2118, 'GENSAL' ,1,7.0,0.03,0.035,3.0,1.0,1.2,0.8,0.22,0.2,0.16,0.05,0.3 /
2118, 'EXDC1' ,1,0.0,40.0,0.1,0.0,0.0,1.0,-1.0,0.1,0.5,0.05,0.7,0.0,2.8,0.08,3.7,0.33 /
2118, 'WSIEG1' ,1,0,0,25.0,0.0,0.0,0.1,1.0,-10.0,1.01,0.0,0.3,1.0,0.0,0.0,0.0,0.0,0.0,0.0,0.0,0.0,0.0,0.0,0.0,0.0,0.0,0.0,0.0,0.0,0.0,0.0,0.0,0.0,0.0,0.0,0.0,0 /
2119, 'GENSAL' ,1,7.0,0.03,0.035,3.0,1.0,1.2,0.8,0.22,0.2,0.16,0.05,0.3 /
2119, 'EXDC1' ,1,0.0,40.0,0.1,0.0,0.0,1.0,-1.0,0.1,0.5,0.05,0.7,0.0,2.8,0.08,3.7,0.33 /
2119, 'WSIEG1' ,1,0,0,25.0,0.0,0.0,0.1,1.0,-10.0,1.01,0.0,0.3,1.0,0.0,0.0,0.0,0.0,0.0,0.0,0.0,0.0,0.0,0.0,0.0,0.0,0.0,0.0,0.0,0.0,0.0,0.0,0.0,0.0,0.0,0.0,0.0,0 /
2120, 'GENSAL' ,1,7.0,0.03,0.035,3.0,1.0,1.2,0.8,0.22,0.2,0.16,0.05,0.3 /
2120, 'EXDC1' ,1,0.0,40.0,0.1,0.0,0.0,1.0,-1.0,0.1,0.5,0.05,0.7,0.0,2.8,0.08,3.7,0.33 /
2120, 'WSIEG1' ,1,0,0,25.0,0.0,0.0,0.1,1.0,-10.0,1.01,0.0,0.3,1.0,0.0,0.0,0.0,0.0,0.0,0.0,0.0,0.0,0.0,0.0,0.0,0.0,0.0,0.0,0.0,0.0,0.0,0.0,0.0,0.0,0.0,0.0,0.0,0 /
2123, 'GENSAL' ,1,7.0,0.03,0.035,3.0,1.0,1.2,0.8,0.22,0.2,0.16,0.05,0.3 /
2123, 'EXDC1' ,1,0.0,40.0,0.1,0.0,0.0,1.0,-1.0,0.1,0.5,0.05,0.7,0.0,2.8,0.08,3.7,0.33 /
2123, 'WSIEG1' ,1,0,0,25.0,0.0,0.0,0.1,1.0,-10.0,1.01,0.0,0.3,1.0,0.0,0.0,0.0,0.0,0.0,0.0,0.0,0.0,0.0,0.0,0.0,0.0,0.0,0.0,0.0,0.0,0.0,0.0,0.0,0.0,0.0,0.0,0.0,0 /
2127, 'GENSAL' ,1,7.0,0.03,0.035,3.0,1.0,1.2,0.8,0.22,0.2,0.16,0.05,0.3 /
2127, 'EXDC1' ,1,0.0,40.0,0.1,0.0,0.0,1.0,-1.0,0.1,0.5,0.05,0.7,0.0,2.8,0.08,3.7,0.33 /
2127, 'WSIEG1' ,1,0,0,25.0,0.0,0.0,0.1,1.0,-10.0,1.01,0.0,0.3,1.0,0.0,0.0,0.0,0.0,0.0,0.0,0.0,0.0,0.0,0.0,0.0,0.0,0.0,0.0,0.0,0.0,0.0,0.0,0.0,0.0,0.0,0.0,0.0,0 /
3017, 'GENSAL' ,1,7.0,0.03,0.035,3.0,1.0,1.2,0.8,0.22,0.2,0.16,0.05,0.3 /
3017, 'EXDC1' ,1,0.0,40.0,0.1,0.0,0.0,1.0,-1.0,0.1,0.5,0.05,0.7,0.0,2.8,0.08,3.7,0.33 /
3017, 'WSIEG1' ,1,0,0,25.0,0.0,0.0,0.1,1.0,-10.0,1.01,0.0,0.3,1.0,0.0,0.0,0.0,0.0,0.0,0.0,0.0,0.0,0.0,0.0,0.0,0.0,0.0,0.0,0.0,0.0,0.0,0.0,0.0,0.0,0.0,0.0,0.0,0 /
3020, 'GENSAL' ,1,7.0,0.03,0.035,3.0,1.0,1.2,0.8,0.22,0.2,0.16,0.05,0.3 /
3020, 'EXDC1' ,1,0.0,40.0,0.1,0.0,0.0,1.0,-1.0,0.1,0.5,0.05,0.7,0.0,2.8,0.08,3.7,0.33 /
3020, 'WSIEG1' ,1,0,0,25.0,0.0,0.0,0.1,1.0,-10.0,1.01,0.0,0.3,1.0,0.0,0.0,0.0,0.0,0.0,0.0,0.0,0.0,0.0,0.0,0.0,0.0,0.0,0.0,0.0,0.0,0.0,0.0,0.0,0.0,0.0,0.0,0.0,0 /
3028, 'GENSAL' ,1,7.0,0.03,0.035,3.0,1.0,1.2,0.8,0.22,0.2,0.16,0.05,0.3 /
3028, 'EXDC1' ,1,0.0,40.0,0.1,0.0,0.0,1.0,-1.0,0.1,0.5,0.05,0.7,0.0,2.8,0.08,3.7,0.33 /
3028, 'WSIEG1' ,1,0,0,25.0,0.0,0.0,0.1,1.0,-10.0,1.01,0.0,0.3,1.0,0.0,0.0,0.0,0.0,0.0,0.0,0.0,0.0,0.0,0.0,0.0,0.0,0.0,0.0,0.0,0.0,0.0,0.0,0.0,0.0,0.0,0.0,0.0,0 /
3034, 'GENSAL' ,1,7.0,0.03,0.035,3.0,1.0,1.2,0.8,0.22,0.2,0.16,0.05,0.3 /
3034, 'EXDC1' ,1,0.0,40.0,0.1,0.0,0.0,1.0,-1.0,0.1,0.5,0.05,0.7,0.0,2.8,0.08,3.7,0.33 /
3034, 'WSIEG1' ,1,0,0,25.0,0.0,0.0,0.1,1.0,-10.0,1.01,0.0,0.3,1.0,0.0,0.0,0.0,0.0,0.0,0.0,0.0,0.0,0.0,0.0,0.0,0.0,0.0,0.0,0.0,0.0,0.0,0.0,0.0,0.0,0.0,0.0,0.0,0 /
3039, 'GENSAL' ,1,7.0,0.03,0.035,3.0,1.0,1.2,0.8,0.22,0.2,0.16,0.05,0.3 /
3039, 'EXDC1' ,1,0.0,40.0,0.1,0.0,0.0,1.0,-1.0,0.1,0.5,0.05,0.7,0.0,2.8,0.08,3.7,0.33 /
3039, 'WSIEG1' ,1,0,0,25.0,0.0,0.0,0.1,1.0,-10.0,1.01,0.0,0.3,1.0,0.0,0.0,0.0,0.0,0.0,0.0,0.0,0.0,0.0,0.0,0.0,0.0,0.0,0.0,0.0,0.0,0.0,0.0,0.0,0.0,0.0,0.0,0.0,0 /
3045, 'GENSAL' ,1,7.0,0.03,0.035,3.0,1.0,1.2,0.8,0.22,0.2,0.16,0.05,0.3 /
3045, 'EXDC1' ,1,0.0,40.0,0.1,0.0,0.0,1.0,-1.0,0.1,0.5,0.05,0.7,0.0,2.8,0.08,3.7,0.33 /
3045, 'WSIEG1' ,1,0,0,25.0,0.0,0.0,0.1,1.0,-10.0,1.01,0.0,0.3,1.0,0.0,0.0,0.0,0.0,0.0,0.0,0.0,0.0,0.0,0.0,0.0,0.0,0.0,0.0,0.0,0.0,0.0,0.0,0.0,0.0,0.0,0.0,0.0,0 /
3048, 'GENSAL' ,1,7.0,0.03,0.035,3.0,1.0,1.2,0.8,0.22,0.2,0.16,0.05,0.3 /
3048, 'EXDC1' ,1,0.0,40.0,0.1,0.0,0.0,1.0,-1.0,0.1,0.5,0.05,0.7,0.0,2.8,0.08,3.7,0.33 /
3048, 'WSIEG1' ,1,0,0,25.0,0.0,0.0,0.1,1.0,-10.0,1.01,0.0,0.3,1.0,0.0,0.0,0.0,0.0,0.0,0.0,0.0,0.0,0.0,0.0,0.0,0.0,0.0,0.0,0.0,0.0,0.0,0.0,0.0,0.0,0.0,0.0,0.0,0 /
3055, 'GENSAL' ,1,7.0,0.03,0.035,3.0,1.0,1.2,0.8,0.22,0.2,0.16,0.05,0.3 /
3055, 'EXDC1' ,1,0.0,40.0,0.1,0.0,0.0,1.0,-1.0,0.1,0.5,0.05,0.7,0.0,2.8,0.08,3.7,0.33 /
3055, 'WSIEG1' ,1,0,0,25.0,0.0,0.0,0.1,1.0,-10.0,1.01,0.0,0.3,1.0,0.0,0.0,0.0,0.0,0.0,0.0,0.0,0.0,0.0,0.0,0.0,0.0,0.0,0.0,0.0,0.0,0.0,0.0,0.0,0.0,0.0,0.0,0.0,0 /
3056, 'GENSAL' ,1,7.0,0.03,0.035,3.0,1.0,1.2,0.8,0.22,0.2,0.16,0.05,0.3 /
3056, 'EXDC1' ,1,0.0,40.0,0.1,0.0,0.0,1.0,-1.0,0.1,0.5,0.05,0.7,0.0,2.8,0.08,3.7,0.33 /
3056, 'WSIEG1' ,1,0,0,25.0,0.0,0.0,0.1,1.0,-10.0,1.01,0.0,0.3,1.0,0.0,0.0,0.0,0.0,0.0,0.0,0.0,0.0,0.0,0.0,0.0,0.0,0.0,0.0,0.0,0.0,0.0,0.0,0.0,0.0,0.0,0.0,0.0,0 /
3057, 'GENSAL' ,1,7.0,0.03,0.035,3.0,1.0,1.2,0.8,0.22,0.2,0.16,0.05,0.3 /
3057, 'EXDC1' ,1,0.0,40.0,0.1,0.0,0.0,1.0,-1.0,0.1,0.5,0.05,0.7,0.0,2.8,0.08,3.7,0.33 /
3057, 'WSIEG1' ,1,0,0,25.0,0.0,0.0,0.1,1.0,-10.0,1.01,0.0,0.3,1.0,0.0,0.0,0.0,0.0,0.0,0.0,0.0,0.0,0.0,0.0,0.0,0.0,0.0,0.0,0.0,0.0,0.0,0.0,0.0,0.0,0.0,0.0,0.0,0 /
3060, 'GENSAL' ,1,7.0,0.03,0.035,3.0,1.0,1.2,0.8,0.22,0.2,0.16,0.05,0.3 /
3060, 'EXDC1' ,1,0.0,40.0,0.1,0.0,0.0,1.0,-1.0,0.1,0.5,0.05,0.7,0.0,2.8,0.08,3.7,0.33 /
3060, 'WSIEG1' ,1,0,0,25.0,0.0,0.0,0.1,1.0,-10.0,1.01,0.0,0.3,1.0,0.0,0.0,0.0,0.0,0.0,0.0,0.0,0.0,0.0,0.0,0.0,0.0,0.0,0.0,0.0,0.0,0.0,0.0,0.0,0.0,0.0,0.0,0.0,0 /
3061, 'GENSAL' ,1,7.0,0.03,0.035,3.0,1.0,1.2,0.8,0.22,0.2,0.16,0.05,0.3 /
3061, 'EXDC1' ,1,0.0,40.0,0.1,0.0,0.0,1.0,-1.0,0.1,0.5,0.05,0.7,0.0,2.8,0.08,3.7,0.33 /
3061, 'WSIEG1' ,1,0,0,25.0,0.0,0.0,0.1,1.0,-10.0,1.01,0.0,0.3,1.0,0.0,0.0,0.0,0.0,0.0,0.0,0.0,0.0,0.0,0.0,0.0,0.0,0.0,0.0,0.0,0.0,0.0,0.0,0.0,0.0,0.0,0.0,0.0,0 /
3062, 'GENSAL' ,1,7.0,0.03,0.035,3.0,1.0,1.2,0.8,0.22,0.2,0.16,0.05,0.3 /
3062, 'EXDC1' ,1,0.0,40.0,0.1,0.0,0.0,1.0,-1.0,0.1,0.5,0.05,0.7,0.0,2.8,0.08,3.7,0.33 /
3062, 'WSIEG1' ,1,0,0,25.0,0.0,0.0,0.1,1.0,-10.0,1.01,0.0,0.3,1.0,0.0,0.0,0.0,0.0,0.0,0.0,0.0,0.0,0.0,0.0,0.0,0.0,0.0,0.0,0.0,0.0,0.0,0.0,0.0,0.0,0.0,0.0,0.0,0 /
3063, 'GENSAL' ,1,7.0,0.03,0.035,3.0,1.0,1.2,0.8,0.22,0.2,0.16,0.05,0.3 /
3063, 'EXDC1' ,1,0.0,40.0,0.1,0.0,0.0,1.0,-1.0,0.1,0.5,0.05,0.7,0.0,2.8,0.08,3.7,0.33 /
3063, 'WSIEG1' ,1,0,0,25.0,0.0,0.0,0.1,1.0,-10.0,1.01,0.0,0.3,1.0,0.0,0.0,0.0,0.0,0.0,0.0,0.0,0.0,0.0,0.0,0.0,0.0,0.0,0.0,0.0,0.0,0.0,0.0,0.0,0.0,0.0,0.0,0.0,0 /
3065, 'GENSAL' ,1,7.0,0.03,0.035,3.0,1.0,1.2,0.8,0.22,0.2,0.16,0.05,0.3 /
3065, 'EXDC1' ,1,0.0,40.0,0.1,0.0,0.0,1.0,-1.0,0.1,0.5,0.05,0.7,0.0,2.8,0.08,3.7,0.33 /
3065, 'WSIEG1' ,1,0,0,25.0,0.0,0.0,0.1,1.0,-10.0,1.01,0.0,0.3,1.0,0.0,0.0,0.0,0.0,0.0,0.0,0.0,0.0,0.0,0.0,0.0,0.0,0.0,0.0,0.0,0.0,0.0,0.0,0.0,0.0,0.0,0.0,0.0,0 /
3068, 'GENSAL' ,1,7.0,0.03,0.035,3.0,1.0,1.2,0.8,0.22,0.2,0.16,0.05,0.3 /
3068, 'EXDC1' ,1,0.0,40.0,0.1,0.0,0.0,1.0,-1.0,0.1,0.5,0.05,0.7,0.0,2.8,0.08,3.7,0.33 /
3068, 'WSIEG1' ,1,0,0,25.0,0.0,0.0,0.1,1.0,-10.0,1.01,0.0,0.3,1.0,0.0,0.0,0.0,0.0,0.0,0.0,0.0,0.0,0.0,0.0,0.0,0.0,0.0,0.0,0.0,0.0,0.0,0.0,0.0,0.0,0.0,0.0,0.0,0 /
3071, 'GENSAL' ,1,7.0,0.03,0.035,3.0,1.0,1.2,0.8,0.22,0.2,0.16,0.05,0.3 /
3071, 'EXDC1' ,1,0.0,40.0,0.1,0.0,0.0,1.0,-1.0,0.1,0.5,0.05,0.7,0.0,2.8,0.08,3.7,0.33 /
3071, 'WSIEG1' ,1,0,0,25.0,0.0,0.0,0.1,1.0,-10.0,1.01,0.0,0.3,1.0,0.0,0.0,0.0,0.0,0.0,0.0,0.0,0.0,0.0,0.0,0.0,0.0,0.0,0.0,0.0,0.0,0.0,0.0,0.0,0.0,0.0,0.0,0.0,0 /
3074, 'GENSAL' ,1,7.0,0.03,0.035,3.0,1.0,1.2,0.8,0.22,0.2,0.16,0.05,0.3 /
3074, 'EXDC1' ,1,0.0,40.0,0.1,0.0,0.0,1.0,-1.0,0.1,0.5,0.05,0.7,0.0,2.8,0.08,3.7,0.33 /
3074, 'WSIEG1' ,1,0,0,25.0,0.0,0.0,0.1,1.0,-10.0,1.01,0.0,0.3,1.0,0.0,0.0,0.0,0.0,0.0,0.0,0.0,0.0,0.0,0.0,0.0,0.0,0.0,0.0,0.0,0.0,0.0,0.0,0.0,0.0,0.0,0.0,0.0,0 /
3081, 'GENSAL' ,1,7.0,0.03,0.035,3.0,1.0,1.2,0.8,0.22,0.2,0.16,0.05,0.3 /
3081, 'EXDC1' ,1,0.0,40.0,0.1,0.0,0.0,1.0,-1.0,0.1,0.5,0.05,0.7,0.0,2.8,0.08,3.7,0.33 /
3081, 'WSIEG1' ,1,0,0,25.0,0.0,0.0,0.1,1.0,-10.0,1.01,0.0,0.3,1.0,0.0,0.0,0.0,0.0,0.0,0.0,0.0,0.0,0.0,0.0,0.0,0.0,0.0,0.0,0.0,0.0,0.0,0.0,0.0,0.0,0.0,0.0,0.0,0 /
3084, 'GENSAL' ,1,7.0,0.03,0.035,3.0,1.0,1.2,0.8,0.22,0.2,0.16,0.05,0.3 /
3084, 'EXDC1' ,1,0.0,40.0,0.1,0.0,0.0,1.0,-1.0,0.1,0.5,0.05,0.7,0.0,2.8,0.08,3.7,0.33 /
3084, 'WSIEG1' ,1,0,0,25.0,0.0,0.0,0.1,1.0,-10.0,1.01,0.0,0.3,1.0,0.0,0.0,0.0,0.0,0.0,0.0,0.0,0.0,0.0,0.0,0.0,0.0,0.0,0.0,0.0,0.0,0.0,0.0,0.0,0.0,0.0,0.0,0.0,0 /
3086, 'GENSAL' ,1,7.0,0.03,0.035,3.0,1.0,1.2,0.8,0.22,0.2,0.16,0.05,0.3 /
3086, 'EXDC1' ,1,0.0,40.0,0.1,0.0,0.0,1.0,-1.0,0.1,0.5,0.05,0.7,0.0,2.8,0.08,3.7,0.33 /
3086, 'WSIEG1' ,1,0,0,25.0,0.0,0.0,0.1,1.0,-10.0,1.01,0.0,0.3,1.0,0.0,0.0,0.0,0.0,0.0,0.0,0.0,0.0,0.0,0.0,0.0,0.0,0.0,0.0,0.0,0.0,0.0,0.0,0.0,0.0,0.0,0.0,0.0,0 /
3087, 'GENSAL' ,1,7.0,0.03,0.035,3.0,1.0,1.2,0.8,0.22,0.2,0.16,0.05,0.3 /
3087, 'EXDC1' ,1,0.0,40.0,0.1,0.0,0.0,1.0,-1.0,0.1,0.5,0.05,0.7,0.0,2.8,0.08,3.7,0.33 /
3087, 'WSIEG1' ,1,0,0,25.0,0.0,0.0,0.1,1.0,-10.0,1.01,0.0,0.3,1.0,0.0,0.0,0.0,0.0,0.0,0.0,0.0,0.0,0.0,0.0,0.0,0.0,0.0,0.0,0.0,0.0,0.0,0.0,0.0,0.0,0.0,0.0,0.0,0 /
3092, 'GENSAL' ,1,7.0,0.03,0.035,3.0,1.0,1.2,0.8,0.22,0.2,0.16,0.05,0.3 /
3092, 'EXDC1' ,1,0.0,40.0,0.1,0.0,0.0,1.0,-1.0,0.1,0.5,0.05,0.7,0.0,2.8,0.08,3.7,0.33 /
3092, 'WSIEG1' ,1,0,0,25.0,0.0,0.0,0.1,1.0,-10.0,1.01,0.0,0.3,1.0,0.0,0.0,0.0,0.0,0.0,0.0,0.0,0.0,0.0,0.0,0.0,0.0,0.0,0.0,0.0,0.0,0.0,0.0,0.0,0.0,0.0,0.0,0.0,0 /
3095, 'GENSAL' ,1,7.0,0.03,0.035,3.0,1.0,1.2,0.8,0.22,0.2,0.16,0.05,0.3 /
3095, 'EXDC1' ,1,0.0,40.0,0.1,0.0,0.0,1.0,-1.0,0.1,0.5,0.05,0.7,0.0,2.8,0.08,3.7,0.33 /
3095, 'WSIEG1' ,1,0,0,25.0,0.0,0.0,0.1,1.0,-10.0,1.01,0.0,0.3,1.0,0.0,0.0,0.0,0.0,0.0,0.0,0.0,0.0,0.0,0.0,0.0,0.0,0.0,0.0,0.0,0.0,0.0,0.0,0.0,0.0,0.0,0.0,0.0,0 /
3098, 'GENSAL' ,1,7.0,0.03,0.035,3.0,1.0,1.2,0.8,0.22,0.2,0.16,0.05,0.3 /
3098, 'EXDC1' ,1,0.0,40.0,0.1,0.0,0.0,1.0,-1.0,0.1,0.5,0.05,0.7,0.0,2.8,0.08,3.7,0.33 /
3098, 'WSIEG1' ,1,0,0,25.0,0.0,0.0,0.1,1.0,-10.0,1.01,0.0,0.3,1.0,0.0,0.0,0.0,0.0,0.0,0.0,0.0,0.0,0.0,0.0,0.0,0.0,0.0,0.0,0.0,0.0,0.0,0.0,0.0,0.0,0.0,0.0,0.0,0 /
3106, 'GENSAL' ,1,7.0,0.03,0.035,3.0,1.0,1.2,0.8,0.22,0.2,0.16,0.05,0.3 /
3106, 'EXDC1' ,1,0.0,40.0,0.1,0.0,0.0,1.0,-1.0,0.1,0.5,0.05,0.7,0.0,2.8,0.08,3.7,0.33 /
3106, 'WSIEG1' ,1,0,0,25.0,0.0,0.0,0.1,1.0,-10.0,1.01,0.0,0.3,1.0,0.0,0.0,0.0,0.0,0.0,0.0,0.0,0.0,0.0,0.0,0.0,0.0,0.0,0.0,0.0,0.0,0.0,0.0,0.0,0.0,0.0,0.0,0.0,0 /
3110, 'GENSAL' ,1,7.0,0.03,0.035,3.0,1.0,1.2,0.8,0.22,0.2,0.16,0.05,0.3 /
3110, 'EXDC1' ,1,0.0,40.0,0.1,0.0,0.0,1.0,-1.0,0.1,0.5,0.05,0.7,0.0,2.8,0.08,3.7,0.33 /
3110, 'WSIEG1' ,1,0,0,25.0,0.0,0.0,0.1,1.0,-10.0,1.01,0.0,0.3,1.0,0.0,0.0,0.0,0.0,0.0,0.0,0.0,0.0,0.0,0.0,0.0,0.0,0.0,0.0,0.0,0.0,0.0,0.0,0.0,0.0,0.0,0.0,0.0,0 /
3112, 'GENSAL' ,1,7.0,0.03,0.035,3.0,1.0,1.2,0.8,0.22,0.2,0.16,0.05,0.3 /
3112, 'EXDC1' ,1,0.0,40.0,0.1,0.0,0.0,1.0,-1.0,0.1,0.5,0.05,0.7,0.0,2.8,0.08,3.7,0.33 /
3112, 'WSIEG1' ,1,0,0,25.0,0.0,0.0,0.1,1.0,-10.0,1.01,0.0,0.3,1.0,0.0,0.0,0.0,0.0,0.0,0.0,0.0,0.0,0.0,0.0,0.0,0.0,0.0,0.0,0.0,0.0,0.0,0.0,0.0,0.0,0.0,0.0,0.0,0 /
3113, 'GENSAL' ,1,7.0,0.03,0.035,3.0,1.0,1.2,0.8,0.22,0.2,0.16,0.05,0.3 /
3113, 'EXDC1' ,1,0.0,40.0,0.1,0.0,0.0,1.0,-1.0,0.1,0.5,0.05,0.7,0.0,2.8,0.08,3.7,0.33 /
3113, 'WSIEG1' ,1,0,0,25.0,0.0,0.0,0.1,1.0,-10.0,1.01,0.0,0.3,1.0,0.0,0.0,0.0,0.0,0.0,0.0,0.0,0.0,0.0,0.0,0.0,0.0,0.0,0.0,0.0,0.0,0.0,0.0,0.0,0.0,0.0,0.0,0.0,0 /
3117, 'GENSAL' ,1,7.0,0.03,0.035,3.0,1.0,1.2,0.8,0.22,0.2,0.16,0.05,0.3 /
3117, 'EXDC1' ,1,0.0,40.0,0.1,0.0,0.0,1.0,-1.0,0.1,0.5,0.05,0.7,0.0,2.8,0.08,3.7,0.33 /
3117, 'WSIEG1' ,1,0,0,25.0,0.0,0.0,0.1,1.0,-10.0,1.01,0.0,0.3,1.0,0.0,0.0,0.0,0.0,0.0,0.0,0.0,0.0,0.0,0.0,0.0,0.0,0.0,0.0,0.0,0.0,0.0,0.0,0.0,0.0,0.0,0.0,0.0,0 /
3118, 'GENSAL' ,1,7.0,0.03,0.035,3.0,1.0,1.2,0.8,0.22,0.2,0.16,0.05,0.3 /
3118, 'EXDC1' ,1,0.0,40.0,0.1,0.0,0.0,1.0,-1.0,0.1,0.5,0.05,0.7,0.0,2.8,0.08,3.7,0.33 /
3118, 'WSIEG1' ,1,0,0,25.0,0.0,0.0,0.1,1.0,-10.0,1.01,0.0,0.3,1.0,0.0,0.0,0.0,0.0,0.0,0.0,0.0,0.0,0.0,0.0,0.0,0.0,0.0,0.0,0.0,0.0,0.0,0.0,0.0,0.0,0.0,0.0,0.0,0 /
3122, 'GENSAL' ,1,7.0,0.03,0.035,3.0,1.0,1.2,0.8,0.22,0.2,0.16,0.05,0.3 /
3122, 'EXDC1' ,1,0.0,40.0,0.1,0.0,0.0,1.0,-1.0,0.1,0.5,0.05,0.7,0.0,2.8,0.08,3.7,0.33 /
3122, 'WSIEG1' ,1,0,0,25.0,0.0,0.0,0.1,1.0,-10.0,1.01,0.0,0.3,1.0,0.0,0.0,0.0,0.0,0.0,0.0,0.0,0.0,0.0,0.0,0.0,0.0,0.0,0.0,0.0,0.0,0.0,0.0,0.0,0.0,0.0,0.0,0.0,0 /
3127, 'GENSAL' ,1,7.0,0.03,0.035,3.0,1.0,1.2,0.8,0.22,0.2,0.16,0.05,0.3 /
3127, 'EXDC1' ,1,0.0,40.0,0.1,0.0,0.0,1.0,-1.0,0.1,0.5,0.05,0.7,0.0,2.8,0.08,3.7,0.33 /
3127, 'WSIEG1' ,1,0,0,25.0,0.0,0.0,0.1,1.0,-10.0,1.01,0.0,0.3,1.0,0.0,0.0,0.0,0.0,0.0,0.0,0.0,0.0,0.0,0.0,0.0,0.0,0.0,0.0,0.0,0.0,0.0,0.0,0.0,0.0,0.0,0.0,0.0,0 /
3129, 'GENSAL' ,1,7.0,0.03,0.035,3.0,1.0,1.2,0.8,0.22,0.2,0.16,0.05,0.3 /
3129, 'EXDC1' ,1,0.0,40.0,0.1,0.0,0.0,1.0,-1.0,0.1,0.5,0.05,0.7,0.0,2.8,0.08,3.7,0.33 /
3129, 'WSIEG1' ,1,0,0,25.0,0.0,0.0,0.1,1.0,-10.0,1.01,0.0,0.3,1.0,0.0,0.0,0.0,0.0,0.0,0.0,0.0,0.0,0.0,0.0,0.0,0.0,0.0,0.0,0.0,0.0,0.0,0.0,0.0,0.0,0.0,0.0,0.0,0 /
3131, 'GENSAL' ,1,7.0,0.03,0.035,3.0,1.0,1.2,0.8,0.22,0.2,0.16,0.05,0.3 /
3131, 'EXDC1' ,1,0.0,40.0,0.1,0.0,0.0,1.0,-1.0,0.1,0.5,0.05,0.7,0.0,2.8,0.08,3.7,0.33 /
3131, 'WSIEG1' ,1,0,0,25.0,0.0,0.0,0.1,1.0,-10.0,1.01,0.0,0.3,1.0,0.0,0.0,0.0,0.0,0.0,0.0,0.0,0.0,0.0,0.0,0.0,0.0,0.0,0.0,0.0,0.0,0.0,0.0,0.0,0.0,0.0,0.0,0.0,0 /
3137, 'GENSAL' ,1,7.0,0.03,0.035,3.0,1.0,1.2,0.8,0.22,0.2,0.16,0.05,0.3 /
3137, 'EXDC1' ,1,0.0,40.0,0.1,0.0,0.0,1.0,-1.0,0.1,0.5,0.05,0.7,0.0,2.8,0.08,3.7,0.33 /
3137, 'WSIEG1' ,1,0,0,25.0,0.0,0.0,0.1,1.0,-10.0,1.01,0.0,0.3,1.0,0.0,0.0,0.0,0.0,0.0,0.0,0.0,0.0,0.0,0.0,0.0,0.0,0.0,0.0,0.0,0.0,0.0,0.0,0.0,0.0,0.0,0.0,0.0,0 /
3141, 'GENSAL' ,1,7.0,0.03,0.035,3.0,1.0,1.2,0.8,0.22,0.2,0.16,0.05,0.3 /
3141, 'EXDC1' ,1,0.0,40.0,0.1,0.0,0.0,1.0,-1.0,0.1,0.5,0.05,0.7,0.0,2.8,0.08,3.7,0.33 /
3141, 'WSIEG1' ,1,0,0,25.0,0.0,0.0,0.1,1.0,-10.0,1.01,0.0,0.3,1.0,0.0,0.0,0.0,0.0,0.0,0.0,0.0,0.0,0.0,0.0,0.0,0.0,0.0,0.0,0.0,0.0,0.0,0.0,0.0,0.0,0.0,0.0,0.0,0 /
4010, 'GENSAL' ,1,7.0,0.03,0.035,3.0,1.0,1.2,0.8,0.22,0.2,0.16,0.05,0.3 /
4010, 'EXDC1' ,1,0.0,40.0,0.1,0.0,0.0,1.0,-1.0,0.1,0.5,0.05,0.7,0.0,2.8,0.08,3.7,0.33 /
4010, 'WSIEG1' ,1,0,0,25.0,0.0,0.0,0.1,1.0,-10.0,1.01,0.0,0.3,1.0,0.0,0.0,0.0,0.0,0.0,0.0,0.0,0.0,0.0,0.0,0.0,0.0,0.0,0.0,0.0,0.0,0.0,0.0,0.0,0.0,0.0,0.0,0.0,0 /
4026, 'GENSAL' ,1,7.0,0.03,0.035,3.0,1.0,1.2,0.8,0.22,0.2,0.16,0.05,0.3 /
4026, 'EXDC1' ,1,0.0,40.0,0.1,0.0,0.0,1.0,-1.0,0.1,0.5,0.05,0.7,0.0,2.8,0.08,3.7,0.33 /